version 3
run General-0-20240621-14:26:24-13320
attr configname General
attr datetime 20240621-14:26:24
attr datetimef 20240621-142624
attr experiment General
attr inifile omnetpp.ini
attr iterationvars ""
attr iterationvarsd ""
attr iterationvarsf ""
attr measurement ""
attr network car_network
attr processid 13320
attr repetition 0
attr replication #0
attr resultdir results
attr runnumber 0
attr seedset 0
config image-path ../../../inet4.5/images
config network car_network
config *.Cam1.numApps 1
config *.Cam1.app[0].typename UdpSourceApp
config *.Cam1.app[0].display-name video
config *.Cam1.app[0].source.packetLength 128B
config *.Cam1.app[0].source.productionInterval 16.66us
config *.Cam1.app[0].io.destAddress "\"DA_Cam\""
config *.Cam1.app[0].io.destPort 1000
config *.DA_Cam.numApps 1
config *.DA_Cam.app[*].typename UdpSinkApp
config *.DA_Cam.app[0].display-name Cam1
config *.DA_Cam.app[0].io.localPort 1000
config *.Cam1.hasOutgoingStreams true
config *.Cam1.bridging.streamIdentifier.identifier.mapping "[{stream: \"video\", packetFilter: expr(udp.destPort == 1000)}]"
config *.Cam1.bridging.streamCoder.encoder.mapping "[{stream: \"video\", pcp: 6}]"
config *.Switch*.bridging.directionReverser.reverser.excludeEncapsulationProtocols "[\"ieee8021qctag\"]"
config *.Switch*.bridging.streamCoder.decoder.mapping "[{pcp: 6, stream: \"video\"}]"

par car_network.Switch1.ethg$o[0].channel typename "\"inet.node.ethernet.EthernetLink\""
par car_network.Switch1.ethg$o[0].channel disabled false
attr mutable ""
par car_network.Switch1.ethg$o[0].channel delay 5e-08s
attr mutable ""
attr unit s
par car_network.Switch1.ethg$o[0].channel datarate 0bps
attr mutable ""
attr unit bps
par car_network.Switch1.ethg$o[0].channel ber 0
attr mutable ""
par car_network.Switch1.ethg$o[0].channel per 0
attr mutable ""
par car_network.Switch1.ethg$o[0].channel length 10m
attr unit m
par car_network.Switch2.ethg$o[0].channel typename "\"inet.node.ethernet.EthernetLink\""
par car_network.Switch2.ethg$o[0].channel disabled false
attr mutable ""
par car_network.Switch2.ethg$o[0].channel delay 5e-08s
attr mutable ""
attr unit s
par car_network.Switch2.ethg$o[0].channel datarate 0bps
attr mutable ""
attr unit bps
par car_network.Switch2.ethg$o[0].channel ber 0
attr mutable ""
par car_network.Switch2.ethg$o[0].channel per 0
attr mutable ""
par car_network.Switch2.ethg$o[0].channel length 10m
attr unit m
par car_network.DA_Cam.ethg$o[0].channel typename "\"inet.node.ethernet.EthernetLink\""
par car_network.DA_Cam.ethg$o[0].channel disabled false
attr mutable ""
par car_network.DA_Cam.ethg$o[0].channel delay 5e-08s
attr mutable ""
attr unit s
par car_network.DA_Cam.ethg$o[0].channel datarate 0bps
attr mutable ""
attr unit bps
par car_network.DA_Cam.ethg$o[0].channel ber 0
attr mutable ""
par car_network.DA_Cam.ethg$o[0].channel per 0
attr mutable ""
par car_network.DA_Cam.ethg$o[0].channel length 10m
attr unit m
par car_network.Switch1.ethg$o[1].channel typename "\"inet.node.ethernet.EthernetLink\""
par car_network.Switch1.ethg$o[1].channel disabled false
attr mutable ""
par car_network.Switch1.ethg$o[1].channel delay 5e-08s
attr mutable ""
attr unit s
par car_network.Switch1.ethg$o[1].channel datarate 0bps
attr mutable ""
attr unit bps
par car_network.Switch1.ethg$o[1].channel ber 0
attr mutable ""
par car_network.Switch1.ethg$o[1].channel per 0
attr mutable ""
par car_network.Switch1.ethg$o[1].channel length 10m
attr unit m
par car_network.HU.ethg$o[0].channel typename "\"inet.node.ethernet.EthernetLink\""
par car_network.HU.ethg$o[0].channel disabled false
attr mutable ""
par car_network.HU.ethg$o[0].channel delay 5e-08s
attr mutable ""
attr unit s
par car_network.HU.ethg$o[0].channel datarate 0bps
attr mutable ""
attr unit bps
par car_network.HU.ethg$o[0].channel ber 0
attr mutable ""
par car_network.HU.ethg$o[0].channel per 0
attr mutable ""
par car_network.HU.ethg$o[0].channel length 10m
attr unit m
par car_network.Switch1.ethg$o[2].channel typename "\"inet.node.ethernet.EthernetLink\""
par car_network.Switch1.ethg$o[2].channel disabled false
attr mutable ""
par car_network.Switch1.ethg$o[2].channel delay 5e-08s
attr mutable ""
attr unit s
par car_network.Switch1.ethg$o[2].channel datarate 0bps
attr mutable ""
attr unit bps
par car_network.Switch1.ethg$o[2].channel ber 0
attr mutable ""
par car_network.Switch1.ethg$o[2].channel per 0
attr mutable ""
par car_network.Switch1.ethg$o[2].channel length 10m
attr unit m
par car_network.Cam1.ethg$o[0].channel typename "\"inet.node.ethernet.EthernetLink\""
par car_network.Cam1.ethg$o[0].channel disabled false
attr mutable ""
par car_network.Cam1.ethg$o[0].channel delay 5e-08s
attr mutable ""
attr unit s
par car_network.Cam1.ethg$o[0].channel datarate 0bps
attr mutable ""
attr unit bps
par car_network.Cam1.ethg$o[0].channel ber 0
attr mutable ""
par car_network.Cam1.ethg$o[0].channel per 0
attr mutable ""
par car_network.Cam1.ethg$o[0].channel length 10m
attr unit m
par car_network.Switch1.ethg$o[3].channel typename "\"inet.node.ethernet.EthernetLink\""
par car_network.Switch1.ethg$o[3].channel disabled false
attr mutable ""
par car_network.Switch1.ethg$o[3].channel delay 5e-08s
attr mutable ""
attr unit s
par car_network.Switch1.ethg$o[3].channel datarate 0bps
attr mutable ""
attr unit bps
par car_network.Switch1.ethg$o[3].channel ber 0
attr mutable ""
par car_network.Switch1.ethg$o[3].channel per 0
attr mutable ""
par car_network.Switch1.ethg$o[3].channel length 10m
attr unit m
par car_network.Cam2.ethg$o[0].channel typename "\"inet.node.ethernet.EthernetLink\""
par car_network.Cam2.ethg$o[0].channel disabled false
attr mutable ""
par car_network.Cam2.ethg$o[0].channel delay 5e-08s
attr mutable ""
attr unit s
par car_network.Cam2.ethg$o[0].channel datarate 0bps
attr mutable ""
attr unit bps
par car_network.Cam2.ethg$o[0].channel ber 0
attr mutable ""
par car_network.Cam2.ethg$o[0].channel per 0
attr mutable ""
par car_network.Cam2.ethg$o[0].channel length 10m
attr unit m
par car_network.Switch1.ethg$o[4].channel typename "\"inet.node.ethernet.EthernetLink\""
par car_network.Switch1.ethg$o[4].channel disabled false
attr mutable ""
par car_network.Switch1.ethg$o[4].channel delay 5e-08s
attr mutable ""
attr unit s
par car_network.Switch1.ethg$o[4].channel datarate 0bps
attr mutable ""
attr unit bps
par car_network.Switch1.ethg$o[4].channel ber 0
attr mutable ""
par car_network.Switch1.ethg$o[4].channel per 0
attr mutable ""
par car_network.Switch1.ethg$o[4].channel length 10m
attr unit m
par car_network.Cam3.ethg$o[0].channel typename "\"inet.node.ethernet.EthernetLink\""
par car_network.Cam3.ethg$o[0].channel disabled false
attr mutable ""
par car_network.Cam3.ethg$o[0].channel delay 5e-08s
attr mutable ""
attr unit s
par car_network.Cam3.ethg$o[0].channel datarate 0bps
attr mutable ""
attr unit bps
par car_network.Cam3.ethg$o[0].channel ber 0
attr mutable ""
par car_network.Cam3.ethg$o[0].channel per 0
attr mutable ""
par car_network.Cam3.ethg$o[0].channel length 10m
attr unit m
par car_network.Switch1.ethg$o[5].channel typename "\"inet.node.ethernet.EthernetLink\""
par car_network.Switch1.ethg$o[5].channel disabled false
attr mutable ""
par car_network.Switch1.ethg$o[5].channel delay 5e-08s
attr mutable ""
attr unit s
par car_network.Switch1.ethg$o[5].channel datarate 0bps
attr mutable ""
attr unit bps
par car_network.Switch1.ethg$o[5].channel ber 0
attr mutable ""
par car_network.Switch1.ethg$o[5].channel per 0
attr mutable ""
par car_network.Switch1.ethg$o[5].channel length 10m
attr unit m
par car_network.Cam4.ethg$o[0].channel typename "\"inet.node.ethernet.EthernetLink\""
par car_network.Cam4.ethg$o[0].channel disabled false
attr mutable ""
par car_network.Cam4.ethg$o[0].channel delay 5e-08s
attr mutable ""
attr unit s
par car_network.Cam4.ethg$o[0].channel datarate 0bps
attr mutable ""
attr unit bps
par car_network.Cam4.ethg$o[0].channel ber 0
attr mutable ""
par car_network.Cam4.ethg$o[0].channel per 0
attr mutable ""
par car_network.Cam4.ethg$o[0].channel length 10m
attr unit m
par car_network.Switch2.ethg$o[1].channel typename "\"inet.node.ethernet.EthernetLink\""
par car_network.Switch2.ethg$o[1].channel disabled false
attr mutable ""
par car_network.Switch2.ethg$o[1].channel delay 5e-08s
attr mutable ""
attr unit s
par car_network.Switch2.ethg$o[1].channel datarate 0bps
attr mutable ""
attr unit bps
par car_network.Switch2.ethg$o[1].channel ber 0
attr mutable ""
par car_network.Switch2.ethg$o[1].channel per 0
attr mutable ""
par car_network.Switch2.ethg$o[1].channel length 10m
attr unit m
par car_network.RSE.ethg$o[0].channel typename "\"inet.node.ethernet.EthernetLink\""
par car_network.RSE.ethg$o[0].channel disabled false
attr mutable ""
par car_network.RSE.ethg$o[0].channel delay 5e-08s
attr mutable ""
attr unit s
par car_network.RSE.ethg$o[0].channel datarate 0bps
attr mutable ""
attr unit bps
par car_network.RSE.ethg$o[0].channel ber 0
attr mutable ""
par car_network.RSE.ethg$o[0].channel per 0
attr mutable ""
par car_network.RSE.ethg$o[0].channel length 10m
attr unit m
par car_network.Switch2.ethg$o[2].channel typename "\"inet.node.ethernet.EthernetLink\""
par car_network.Switch2.ethg$o[2].channel disabled false
attr mutable ""
par car_network.Switch2.ethg$o[2].channel delay 5e-08s
attr mutable ""
attr unit s
par car_network.Switch2.ethg$o[2].channel datarate 0bps
attr mutable ""
attr unit bps
par car_network.Switch2.ethg$o[2].channel ber 0
attr mutable ""
par car_network.Switch2.ethg$o[2].channel per 0
attr mutable ""
par car_network.Switch2.ethg$o[2].channel length 10m
attr unit m
par car_network.Telemetrics.ethg$o[0].channel typename "\"inet.node.ethernet.EthernetLink\""
par car_network.Telemetrics.ethg$o[0].channel disabled false
attr mutable ""
par car_network.Telemetrics.ethg$o[0].channel delay 5e-08s
attr mutable ""
attr unit s
par car_network.Telemetrics.ethg$o[0].channel datarate 0bps
attr mutable ""
attr unit bps
par car_network.Telemetrics.ethg$o[0].channel ber 0
attr mutable ""
par car_network.Telemetrics.ethg$o[0].channel per 0
attr mutable ""
par car_network.Telemetrics.ethg$o[0].channel length 10m
attr unit m
par car_network.Switch2.ethg$o[3].channel typename "\"inet.node.ethernet.EthernetLink\""
par car_network.Switch2.ethg$o[3].channel disabled false
attr mutable ""
par car_network.Switch2.ethg$o[3].channel delay 5e-08s
attr mutable ""
attr unit s
par car_network.Switch2.ethg$o[3].channel datarate 0bps
attr mutable ""
attr unit bps
par car_network.Switch2.ethg$o[3].channel ber 0
attr mutable ""
par car_network.Switch2.ethg$o[3].channel per 0
attr mutable ""
par car_network.Switch2.ethg$o[3].channel length 10m
attr unit m
par car_network.CD_DVD.ethg$o[0].channel typename "\"inet.node.ethernet.EthernetLink\""
par car_network.CD_DVD.ethg$o[0].channel disabled false
attr mutable ""
par car_network.CD_DVD.ethg$o[0].channel delay 5e-08s
attr mutable ""
attr unit s
par car_network.CD_DVD.ethg$o[0].channel datarate 0bps
attr mutable ""
attr unit bps
par car_network.CD_DVD.ethg$o[0].channel ber 0
attr mutable ""
par car_network.CD_DVD.ethg$o[0].channel per 0
attr mutable ""
par car_network.CD_DVD.ethg$o[0].channel length 10m
attr unit m
par car_network.Switch2.ethg$o[4].channel typename "\"inet.node.ethernet.EthernetLink\""
par car_network.Switch2.ethg$o[4].channel disabled false
attr mutable ""
par car_network.Switch2.ethg$o[4].channel delay 5e-08s
attr mutable ""
attr unit s
par car_network.Switch2.ethg$o[4].channel datarate 0bps
attr mutable ""
attr unit bps
par car_network.Switch2.ethg$o[4].channel ber 0
attr mutable ""
par car_network.Switch2.ethg$o[4].channel per 0
attr mutable ""
par car_network.Switch2.ethg$o[4].channel length 10m
attr unit m
par car_network.CU.ethg$o[0].channel typename "\"inet.node.ethernet.EthernetLink\""
par car_network.CU.ethg$o[0].channel disabled false
attr mutable ""
par car_network.CU.ethg$o[0].channel delay 5e-08s
attr mutable ""
attr unit s
par car_network.CU.ethg$o[0].channel datarate 0bps
attr mutable ""
attr unit bps
par car_network.CU.ethg$o[0].channel ber 0
attr mutable ""
par car_network.CU.ethg$o[0].channel per 0
attr mutable ""
par car_network.CU.ethg$o[0].channel length 10m
attr unit m
par car_network.Switch2.ethg$o[5].channel typename "\"inet.node.ethernet.EthernetLink\""
par car_network.Switch2.ethg$o[5].channel disabled false
attr mutable ""
par car_network.Switch2.ethg$o[5].channel delay 5e-08s
attr mutable ""
attr unit s
par car_network.Switch2.ethg$o[5].channel datarate 0bps
attr mutable ""
attr unit bps
par car_network.Switch2.ethg$o[5].channel ber 0
attr mutable ""
par car_network.Switch2.ethg$o[5].channel per 0
attr mutable ""
par car_network.Switch2.ethg$o[5].channel length 10m
attr unit m
par car_network.visualizer.sceneVisualizer typename "\"inet.visualizer.canvas.scene.SceneCanvasVisualizer\""
par car_network.visualizer.sceneVisualizer visualizationTargetModule "\"^.^\""
par car_network.visualizer.sceneVisualizer visualizationSubjectModule "\"^.^\""
par car_network.visualizer.sceneVisualizer tags "\"\""
par car_network.visualizer.sceneVisualizer physicalEnvironmentModule "\"physicalEnvironment\""
par car_network.visualizer.sceneVisualizer networkNodeVisualizerModule "\"^.networkNodeVisualizer\""
par car_network.visualizer.sceneVisualizer axisLength "nan m"
attr mutable ""
attr unit m
par car_network.visualizer.sceneVisualizer animationSpeed 0
par car_network.visualizer.sceneVisualizer sceneMinX "nan m"
attr unit m
par car_network.visualizer.sceneVisualizer sceneMinY "nan m"
attr unit m
par car_network.visualizer.sceneVisualizer sceneMinZ "nan m"
attr unit m
par car_network.visualizer.sceneVisualizer sceneMaxX "nan m"
attr unit m
par car_network.visualizer.sceneVisualizer sceneMaxY "nan m"
attr unit m
par car_network.visualizer.sceneVisualizer sceneMaxZ "nan m"
attr unit m
par car_network.visualizer.sceneVisualizer zIndex 0
par car_network.visualizer.sceneVisualizer viewAngle "\"x right y down z out\""
attr mutable ""
par car_network.visualizer.sceneVisualizer viewScale "\"1 1\""
attr mutable ""
par car_network.visualizer.sceneVisualizer viewTranslation "\"0 0\""
attr mutable ""
par car_network.visualizer.sceneVisualizer descriptionFigure "\"\""
par car_network.visualizer.physicalEnvironmentVisualizer typename "\"inet.visualizer.canvas.environment.PhysicalEnvironmentCanvasVisualizer\""
par car_network.visualizer.physicalEnvironmentVisualizer visualizationTargetModule "\"^.^\""
par car_network.visualizer.physicalEnvironmentVisualizer visualizationSubjectModule "\"^.^\""
par car_network.visualizer.physicalEnvironmentVisualizer tags "\"\""
par car_network.visualizer.physicalEnvironmentVisualizer physicalEnvironmentModule "\"physicalEnvironment\""
par car_network.visualizer.physicalEnvironmentVisualizer displayObjects true
par car_network.visualizer.physicalEnvironmentVisualizer zIndex 0
par car_network.visualizer.networkNodeVisualizer typename "\"inet.visualizer.canvas.scene.NetworkNodeCanvasVisualizer\""
par car_network.visualizer.networkNodeVisualizer visualizationTargetModule "\"^.^\""
par car_network.visualizer.networkNodeVisualizer visualizationSubjectModule "\"^.^\""
par car_network.visualizer.networkNodeVisualizer tags "\"\""
par car_network.visualizer.networkNodeVisualizer nodeFilter "\"*\""
attr mutable ""
par car_network.visualizer.networkNodeVisualizer annotationSpacing 4
par car_network.visualizer.networkNodeVisualizer placementPenalty 10
par car_network.visualizer.networkNodeVisualizer zIndex 0
par car_network.visualizer.networkConnectionVisualizer typename "\"inet.visualizer.canvas.scene.NetworkConnectionCanvasVisualizer\""
par car_network.visualizer.networkConnectionVisualizer visualizationTargetModule "\"^.^\""
par car_network.visualizer.networkConnectionVisualizer visualizationSubjectModule "\"^.^\""
par car_network.visualizer.networkConnectionVisualizer tags "\"\""
par car_network.visualizer.networkConnectionVisualizer displayNetworkConnections true
par car_network.visualizer.networkConnectionVisualizer nodeFilter "\"\""
attr mutable ""
par car_network.visualizer.networkConnectionVisualizer lineColor "\"black\""
par car_network.visualizer.networkConnectionVisualizer lineStyle "\"solid\""
par car_network.visualizer.networkConnectionVisualizer lineWidth 1
par car_network.visualizer.networkConnectionVisualizer zIndex 0
par car_network.visualizer.mobilityVisualizer typename "\"inet.visualizer.canvas.mobility.MobilityCanvasVisualizer\""
par car_network.visualizer.mobilityVisualizer visualizationTargetModule "\"^.^\""
par car_network.visualizer.mobilityVisualizer visualizationSubjectModule "\"^.^\""
par car_network.visualizer.mobilityVisualizer tags "\"\""
par car_network.visualizer.mobilityVisualizer networkNodeVisualizerModule "\"^.networkNodeVisualizer\""
par car_network.visualizer.mobilityVisualizer displayMobility true
par car_network.visualizer.mobilityVisualizer animationSpeed 0
par car_network.visualizer.mobilityVisualizer moduleFilter "\"**.mobility\""
attr mutable ""
par car_network.visualizer.mobilityVisualizer displayPositions false
par car_network.visualizer.mobilityVisualizer positionCircleRadius 4
par car_network.visualizer.mobilityVisualizer positionCircleLineWidth 1
par car_network.visualizer.mobilityVisualizer positionCircleLineColor "\"dark\""
attr enum light,dark
par car_network.visualizer.mobilityVisualizer positionCircleFillColor "\"dark\""
attr enum light,dark
par car_network.visualizer.mobilityVisualizer displayOrientations false
par car_network.visualizer.mobilityVisualizer orientationPieRadius 32
par car_network.visualizer.mobilityVisualizer orientationPieSize 0.2
par car_network.visualizer.mobilityVisualizer orientationPieOpacity 0.25
par car_network.visualizer.mobilityVisualizer orientationLineColor "\"black\""
par car_network.visualizer.mobilityVisualizer orientationLineStyle "\"solid\""
par car_network.visualizer.mobilityVisualizer orientationLineWidth 1
par car_network.visualizer.mobilityVisualizer orientationFillColor "\"blue\""
par car_network.visualizer.mobilityVisualizer displayVelocities false
par car_network.visualizer.mobilityVisualizer velocityArrowScale 1
par car_network.visualizer.mobilityVisualizer velocityLineColor "\"black\""
par car_network.visualizer.mobilityVisualizer velocityLineStyle "\"solid\""
par car_network.visualizer.mobilityVisualizer velocityLineWidth 1
par car_network.visualizer.mobilityVisualizer displayMovementTrails false
par car_network.visualizer.mobilityVisualizer movementTrailLineColor "\"dark\""
attr enum light,dark
par car_network.visualizer.mobilityVisualizer movementTrailLineStyle "\"solid\""
par car_network.visualizer.mobilityVisualizer movementTrailLineWidth 1
par car_network.visualizer.mobilityVisualizer trailLength 100
par car_network.visualizer.mobilityVisualizer zIndex 0
par car_network.visualizer.statisticVisualizer typename "\"inet.visualizer.canvas.common.StatisticCanvasVisualizer\""
par car_network.visualizer.statisticVisualizer visualizationTargetModule "\"^.^\""
par car_network.visualizer.statisticVisualizer visualizationSubjectModule "\"^.^\""
par car_network.visualizer.statisticVisualizer tags "\"\""
par car_network.visualizer.statisticVisualizer networkNodeVisualizerModule "\"^.networkNodeVisualizer\""
par car_network.visualizer.statisticVisualizer displayStatistics true
par car_network.visualizer.statisticVisualizer signalName "\"\""
par car_network.visualizer.statisticVisualizer statisticName "\"\""
par car_network.visualizer.statisticVisualizer statisticUnit "\"\""
par car_network.visualizer.statisticVisualizer statisticExpression "\"\""
par car_network.visualizer.statisticVisualizer sourceFilter "\"**\""
attr mutable ""
par car_network.visualizer.statisticVisualizer format "\"%n: %v %u\""
attr mutable ""
par car_network.visualizer.statisticVisualizer unit "\"\""
par car_network.visualizer.statisticVisualizer font "\"<default>\""
par car_network.visualizer.statisticVisualizer textColor "\"black\""
par car_network.visualizer.statisticVisualizer backgroundColor "\"white\""
par car_network.visualizer.statisticVisualizer opacity 1
par car_network.visualizer.statisticVisualizer placementHint "\"top\""
par car_network.visualizer.statisticVisualizer placementPriority 0
par car_network.visualizer.statisticVisualizer zIndex 10
par car_network.visualizer.statisticVisualizer propertyName "\"\""
par car_network.visualizer.statisticVisualizer propertyIndex "\"\""
par car_network.visualizer.infoVisualizer typename "\"inet.visualizer.canvas.common.InfoCanvasVisualizer\""
par car_network.visualizer.infoVisualizer visualizationTargetModule "\"^.^\""
par car_network.visualizer.infoVisualizer visualizationSubjectModule "\"^.^\""
par car_network.visualizer.infoVisualizer tags "\"\""
par car_network.visualizer.infoVisualizer networkNodeVisualizerModule "\"^.networkNodeVisualizer\""
par car_network.visualizer.infoVisualizer displayInfos true
par car_network.visualizer.infoVisualizer modules "\"\""
attr mutable ""
par car_network.visualizer.infoVisualizer format "\"%t\""
attr mutable ""
par car_network.visualizer.infoVisualizer font "\"<default>\""
par car_network.visualizer.infoVisualizer textColor "\"black\""
par car_network.visualizer.infoVisualizer backgroundColor "\"white\""
par car_network.visualizer.infoVisualizer opacity 1
par car_network.visualizer.infoVisualizer placementHint "\"top\""
par car_network.visualizer.infoVisualizer placementPriority 0
par car_network.visualizer.infoVisualizer zIndex 10
par car_network.visualizer.energyStorageVisualizer typename "\"inet.visualizer.canvas.power.EnergyStorageCanvasVisualizer\""
par car_network.visualizer.energyStorageVisualizer visualizationTargetModule "\"^.^\""
par car_network.visualizer.energyStorageVisualizer visualizationSubjectModule "\"^.^\""
par car_network.visualizer.energyStorageVisualizer tags "\"\""
par car_network.visualizer.energyStorageVisualizer networkNodeVisualizerModule "\"^.networkNodeVisualizer\""
par car_network.visualizer.energyStorageVisualizer displayEnergyStorages false
par car_network.visualizer.energyStorageVisualizer energyStorageFilter "\"**\""
par car_network.visualizer.energyStorageVisualizer color "\"green\""
par car_network.visualizer.energyStorageVisualizer width 8
par car_network.visualizer.energyStorageVisualizer height 24
par car_network.visualizer.energyStorageVisualizer spacing 2
par car_network.visualizer.energyStorageVisualizer placementHint "\"right\""
par car_network.visualizer.energyStorageVisualizer placementPriority 0
par car_network.visualizer.energyStorageVisualizer zIndex 10
par car_network.visualizer.mediumVisualizer typename "\"inet.visualizer.canvas.physicallayer.MediumCanvasVisualizer\""
par car_network.visualizer.mediumVisualizer visualizationTargetModule "\"^.^\""
par car_network.visualizer.mediumVisualizer visualizationSubjectModule "\"^.^\""
par car_network.visualizer.mediumVisualizer tags "\"\""
par car_network.visualizer.mediumVisualizer mediumModule "\"radioMedium\""
par car_network.visualizer.mediumVisualizer networkNodeVisualizerModule "\"^.networkNodeVisualizer\""
par car_network.visualizer.mediumVisualizer nodeFilter "\"*\""
attr mutable ""
par car_network.visualizer.mediumVisualizer interfaceFilter "\"*\""
attr mutable ""
par car_network.visualizer.mediumVisualizer packetFilter "(omnetpp::cValueHolder)holder: \"*\""
attr mutable ""
par car_network.visualizer.mediumVisualizer displaySignals false
par car_network.visualizer.mediumVisualizer signalColor "\"dark\""
attr enum light,dark
par car_network.visualizer.mediumVisualizer signalPropagationAnimationSpeed "nan "
attr mutable ""
par car_network.visualizer.mediumVisualizer signalPropagationAnimationTime 1s
attr unit s
par car_network.visualizer.mediumVisualizer signalPropagationAdditionalTime 0s
attr unit s
par car_network.visualizer.mediumVisualizer signalTransmissionAnimationSpeed "nan "
attr mutable ""
par car_network.visualizer.mediumVisualizer signalTransmissionAnimationTime 1s
attr unit s
par car_network.visualizer.mediumVisualizer signalAnimationSpeedChangeTimeMode "\"realTime\""
attr enum realTime,animationTime,simulationTime
par car_network.visualizer.mediumVisualizer signalAnimationSpeedChangeTime 1s
attr unit s
par car_network.visualizer.mediumVisualizer displaySignalDepartures false
par car_network.visualizer.mediumVisualizer signalDepartureImage "\"misc/signal_departure.png\""
par car_network.visualizer.mediumVisualizer signalDeparturePlacementHint "\"topCenter\""
par car_network.visualizer.mediumVisualizer signalDeparturePlacementPriority 1
par car_network.visualizer.mediumVisualizer displaySignalArrivals false
par car_network.visualizer.mediumVisualizer signalArrivalImage "\"misc/signal_arrival.png\""
par car_network.visualizer.mediumVisualizer signalArrivalPlacementHint "\"topCenter\""
par car_network.visualizer.mediumVisualizer signalArrivalPlacementPriority -1
par car_network.visualizer.mediumVisualizer displayCommunicationRanges false
par car_network.visualizer.mediumVisualizer communicationRangeLineColor "\"blue\""
par car_network.visualizer.mediumVisualizer communicationRangeLineStyle "\"solid\""
par car_network.visualizer.mediumVisualizer communicationRangeLineWidth 1
par car_network.visualizer.mediumVisualizer displayInterferenceRanges false
par car_network.visualizer.mediumVisualizer interferenceRangeLineColor "\"gray\""
par car_network.visualizer.mediumVisualizer interferenceRangeLineStyle "\"solid\""
par car_network.visualizer.mediumVisualizer interferenceRangeLineWidth 1
par car_network.visualizer.mediumVisualizer autoPowerAxis true
par car_network.visualizer.mediumVisualizer signalMinPower "inf dBmW"
attr unit dBmW
par car_network.visualizer.mediumVisualizer signalMaxPower 0dBmW
attr unit dBmW
par car_network.visualizer.mediumVisualizer signalMinPowerDensity "inf dBmWpMHz"
attr unit dBmWpMHz
par car_network.visualizer.mediumVisualizer signalMaxPowerDensity "-inf dBmWpMHz"
attr unit dBmWpMHz
par car_network.visualizer.mediumVisualizer autoTimeAxis true
par car_network.visualizer.mediumVisualizer signalMinTime 0s
attr unit s
par car_network.visualizer.mediumVisualizer signalMaxTime 0s
attr unit s
par car_network.visualizer.mediumVisualizer autoFrequencyAxis true
par car_network.visualizer.mediumVisualizer signalMinFrequency "inf Hz"
attr unit Hz
par car_network.visualizer.mediumVisualizer signalMaxFrequency "-inf Hz"
attr unit Hz
par car_network.visualizer.mediumVisualizer displayMainPowerDensityMap false
par car_network.visualizer.mediumVisualizer mainPowerDensityMapPixmapDensity 1
par car_network.visualizer.mediumVisualizer mainPowerDensityMapMinX 0
par car_network.visualizer.mediumVisualizer mainPowerDensityMapMaxX "nan "
par car_network.visualizer.mediumVisualizer mainPowerDensityMapMinY 0
par car_network.visualizer.mediumVisualizer mainPowerDensityMapMaxY "nan "
par car_network.visualizer.mediumVisualizer mainPowerDensityMapZ 0
par car_network.visualizer.mediumVisualizer mainPowerDensityMapFigureXTickCount 3
par car_network.visualizer.mediumVisualizer mainPowerDensityMapFigureYTickCount 3
par car_network.visualizer.mediumVisualizer displayPowerDensityMaps false
par car_network.visualizer.mediumVisualizer powerDensityMapMode "\"auto\""
attr enum total,signal,auto
par car_network.visualizer.mediumVisualizer powerDensityMapPixelMode "\"mean\""
attr enum sample,partition,mean
par car_network.visualizer.mediumVisualizer powerDensityMapApproximationSize 10
par car_network.visualizer.mediumVisualizer powerDensityMapCenterFrequency "nan Hz"
attr mutable ""
attr unit Hz
par car_network.visualizer.mediumVisualizer powerDensityMapBandwidth 0Hz
attr mutable ""
attr unit Hz
par car_network.visualizer.mediumVisualizer powerDensityMapFigureWidth 200
par car_network.visualizer.mediumVisualizer powerDensityMapFigureHeight 120
par car_network.visualizer.mediumVisualizer powerDensityMapPixmapWidth 200
par car_network.visualizer.mediumVisualizer powerDensityMapPixmapHeight 120
par car_network.visualizer.mediumVisualizer powerDensityMapZ 0
par car_network.visualizer.mediumVisualizer powerDensityMapFigureXTickCount 3
par car_network.visualizer.mediumVisualizer powerDensityMapFigureYTickCount 3
par car_network.visualizer.mediumVisualizer displaySpectrums false
par car_network.visualizer.mediumVisualizer spectrumMode "\"auto\""
attr enum total,signal,auto
par car_network.visualizer.mediumVisualizer spectrumFigureWidth 200
par car_network.visualizer.mediumVisualizer spectrumFigureHeight 120
par car_network.visualizer.mediumVisualizer spectrumFigureXTickCount 3
par car_network.visualizer.mediumVisualizer spectrumFigureYTickCount 5
par car_network.visualizer.mediumVisualizer spectrumFigureInterpolationSize 5
par car_network.visualizer.mediumVisualizer spectrumPlacementHint "\"bottomCenter\""
par car_network.visualizer.mediumVisualizer spectrumPlacementPriority -1
par car_network.visualizer.mediumVisualizer displaySpectrograms false
par car_network.visualizer.mediumVisualizer spectrogramMode "\"auto\""
attr enum total,signal,auto
par car_network.visualizer.mediumVisualizer spectrogramPixelMode "\"mean\""
attr enum sample,partition,mean
par car_network.visualizer.mediumVisualizer spectrogramFigureWidth 200
par car_network.visualizer.mediumVisualizer spectrogramFigureHeight 120
par car_network.visualizer.mediumVisualizer spectrogramPixmapWidth 200
par car_network.visualizer.mediumVisualizer spectrogramPixmapHeight 120
par car_network.visualizer.mediumVisualizer spectrogramFigureXTickCount 3
par car_network.visualizer.mediumVisualizer spectrogramFigureYTickCount 5
par car_network.visualizer.mediumVisualizer spectrogramPlacementHint "\"bottomCenter\""
par car_network.visualizer.mediumVisualizer spectrogramPlacementPriority -1
par car_network.visualizer.mediumVisualizer zIndex 0
par car_network.visualizer.mediumVisualizer signalShape "\"ring\""
attr enum ring,sphere
par car_network.visualizer.mediumVisualizer signalOpacity 0.5
par car_network.visualizer.mediumVisualizer signalRingCount 20
par car_network.visualizer.mediumVisualizer signalRingSize 50m
attr unit m
par car_network.visualizer.mediumVisualizer signalFadingDistance 50m
attr unit m
par car_network.visualizer.mediumVisualizer signalFadingFactor 1.2
par car_network.visualizer.mediumVisualizer signalWaveCount 20
par car_network.visualizer.mediumVisualizer signalWaveLength 50m
attr unit m
par car_network.visualizer.mediumVisualizer signalWaveWidth 10m
attr unit m
par car_network.visualizer.mediumVisualizer signalWaveFadingAnimationSpeedFactor 1
par car_network.visualizer.mediumVisualizer displayCommunicationHeat false
par car_network.visualizer.obstacleLossVisualizer typename "\"inet.visualizer.canvas.physicallayer.TracingObstacleLossCanvasVisualizer\""
par car_network.visualizer.obstacleLossVisualizer visualizationTargetModule "\"^.^\""
par car_network.visualizer.obstacleLossVisualizer visualizationSubjectModule "\"^.^\""
par car_network.visualizer.obstacleLossVisualizer tags "\"\""
par car_network.visualizer.obstacleLossVisualizer displayIntersections false
par car_network.visualizer.obstacleLossVisualizer intersectionLineColor "\"red\""
par car_network.visualizer.obstacleLossVisualizer intersectionLineStyle "\"solid\""
par car_network.visualizer.obstacleLossVisualizer intersectionLineWidth 1
par car_network.visualizer.obstacleLossVisualizer displayFaceNormalVectors false
par car_network.visualizer.obstacleLossVisualizer faceNormalLineColor "\"grey\""
par car_network.visualizer.obstacleLossVisualizer faceNormalLineStyle "\"solid\""
par car_network.visualizer.obstacleLossVisualizer faceNormalLineWidth 1
par car_network.visualizer.obstacleLossVisualizer fadeOutMode "\"realTime\""
attr enum realTime,animationTime,simulationTime
par car_network.visualizer.obstacleLossVisualizer fadeOutTime 1s
attr unit s
par car_network.visualizer.obstacleLossVisualizer fadeOutAnimationSpeed 0
par car_network.visualizer.obstacleLossVisualizer zIndex 0
par car_network.visualizer.packetDropVisualizer typename "\"inet.visualizer.canvas.common.PacketDropCanvasVisualizer\""
par car_network.visualizer.packetDropVisualizer visualizationTargetModule "\"^.^\""
par car_network.visualizer.packetDropVisualizer visualizationSubjectModule "\"^.^\""
par car_network.visualizer.packetDropVisualizer tags "\"\""
par car_network.visualizer.packetDropVisualizer displayPacketDrops false
par car_network.visualizer.packetDropVisualizer nodeFilter "\"*\""
attr mutable ""
par car_network.visualizer.packetDropVisualizer interfaceFilter "\"*\""
attr mutable ""
par car_network.visualizer.packetDropVisualizer packetFilter "(omnetpp::cValueHolder)holder: \"*\""
attr mutable ""
par car_network.visualizer.packetDropVisualizer detailsFilter "\"*\""
attr mutable ""
par car_network.visualizer.packetDropVisualizer icon "\"msg/packet_s\""
par car_network.visualizer.packetDropVisualizer iconTintAmount 1
par car_network.visualizer.packetDropVisualizer iconTintColor "\"dark\""
par car_network.visualizer.packetDropVisualizer labelFormat "\"%n\""
attr mutable ""
par car_network.visualizer.packetDropVisualizer labelFont "\"<default>\""
par car_network.visualizer.packetDropVisualizer labelColor "\"black\""
par car_network.visualizer.packetDropVisualizer fadeOutMode "\"realTime\""
attr enum realTime,animationTime,simulationTime
par car_network.visualizer.packetDropVisualizer fadeOutTime 1s
attr unit s
par car_network.visualizer.packetDropVisualizer fadeOutAnimationSpeed 0
par car_network.visualizer.packetDropVisualizer zIndex 10
par car_network.visualizer.packetDropVisualizer dx 32
par car_network.visualizer.packetDropVisualizer dy 64
par car_network.visualizer.packetFlowVisualizer typename "\"inet.visualizer.canvas.flow.PacketFlowCanvasVisualizer\""
par car_network.visualizer.packetFlowVisualizer visualizationTargetModule "\"^.^\""
par car_network.visualizer.packetFlowVisualizer visualizationSubjectModule "\"^.^\""
par car_network.visualizer.packetFlowVisualizer tags "\"\""
par car_network.visualizer.packetFlowVisualizer displayRoutes false
par car_network.visualizer.packetFlowVisualizer startPathSignal "\"packetFlowStarted\""
par car_network.visualizer.packetFlowVisualizer extendPathSignal "\"packetReceivedFromLower\""
par car_network.visualizer.packetFlowVisualizer endPathSignal "\"packetFlowEnded\""
par car_network.visualizer.packetFlowVisualizer nodeFilter "\"*\""
attr mutable ""
par car_network.visualizer.packetFlowVisualizer packetFilter "(omnetpp::cValueHolder)holder: \"*\""
attr mutable ""
par car_network.visualizer.packetFlowVisualizer lineColor "\"dark\""
attr enum light,dark
par car_network.visualizer.packetFlowVisualizer lineStyle "\"dashed\""
par car_network.visualizer.packetFlowVisualizer lineWidth 3
par car_network.visualizer.packetFlowVisualizer lineSmooth false
par car_network.visualizer.packetFlowVisualizer lineShift 16
par car_network.visualizer.packetFlowVisualizer lineShiftMode "\"normal\""
par car_network.visualizer.packetFlowVisualizer lineContactSpacing 3
par car_network.visualizer.packetFlowVisualizer lineContactMode "\"rectangular\""
attr enum circular,rectangular
par car_network.visualizer.packetFlowVisualizer labelFormat "\"%L %p pk (%l)\""
par car_network.visualizer.packetFlowVisualizer labelFont "\"<default>, 8px\""
par car_network.visualizer.packetFlowVisualizer labelColor "\"\""
par car_network.visualizer.packetFlowVisualizer fadeOutMode "\"realTime\""
attr enum realTime,animationTime,simulationTime
par car_network.visualizer.packetFlowVisualizer fadeOutTime 0s
attr unit s
par car_network.visualizer.packetFlowVisualizer fadeOutAnimationSpeed 0
par car_network.visualizer.packetFlowVisualizer zIndex 4
par car_network.visualizer.queueVisualizer typename "\"inet.visualizer.canvas.common.QueueCanvasVisualizer\""
par car_network.visualizer.queueVisualizer visualizationTargetModule "\"^.^\""
par car_network.visualizer.queueVisualizer visualizationSubjectModule "\"^.^\""
par car_network.visualizer.queueVisualizer tags "\"\""
par car_network.visualizer.queueVisualizer networkNodeVisualizerModule "\"^.networkNodeVisualizer\""
par car_network.visualizer.queueVisualizer displayQueues false
par car_network.visualizer.queueVisualizer queueFilter "\"**\""
par car_network.visualizer.queueVisualizer color "\"blue\""
par car_network.visualizer.queueVisualizer width 8
par car_network.visualizer.queueVisualizer height 24
par car_network.visualizer.queueVisualizer spacing 2
par car_network.visualizer.queueVisualizer placementHint "\"right\""
par car_network.visualizer.queueVisualizer placementPriority 0
par car_network.visualizer.queueVisualizer zIndex 10
par car_network.visualizer.gateScheduleVisualizer typename "\"inet.visualizer.canvas.common.GateScheduleCanvasVisualizer\""
par car_network.visualizer.gateScheduleVisualizer visualizationTargetModule "\"^.^\""
par car_network.visualizer.gateScheduleVisualizer visualizationSubjectModule "\"^.^\""
par car_network.visualizer.gateScheduleVisualizer tags "\"\""
par car_network.visualizer.gateScheduleVisualizer networkNodeVisualizerModule "\"^.networkNodeVisualizer\""
par car_network.visualizer.gateScheduleVisualizer displayGateSchedules false
par car_network.visualizer.gateScheduleVisualizer labelFormat "\"%i %D\""
par car_network.visualizer.gateScheduleVisualizer gateFilter "\"**\""
par car_network.visualizer.gateScheduleVisualizer width 100
par car_network.visualizer.gateScheduleVisualizer height 8
par car_network.visualizer.gateScheduleVisualizer spacing 2
par car_network.visualizer.gateScheduleVisualizer placementHint "\"right\""
par car_network.visualizer.gateScheduleVisualizer placementPriority 0
par car_network.visualizer.gateScheduleVisualizer displayDuration 0s
attr mutable ""
attr unit s
par car_network.visualizer.gateScheduleVisualizer currentTimePosition 50
par car_network.visualizer.gateScheduleVisualizer zIndex 10
par car_network.visualizer.radioVisualizer typename "\"inet.visualizer.canvas.physicallayer.RadioCanvasVisualizer\""
par car_network.visualizer.radioVisualizer visualizationTargetModule "\"^.^\""
par car_network.visualizer.radioVisualizer visualizationSubjectModule "\"^.^\""
par car_network.visualizer.radioVisualizer tags "\"\""
par car_network.visualizer.radioVisualizer networkNodeVisualizerModule "\"^.networkNodeVisualizer\""
par car_network.visualizer.radioVisualizer displayRadios false
par car_network.visualizer.radioVisualizer displayRadioMode true
par car_network.visualizer.radioVisualizer displayReceptionState true
par car_network.visualizer.radioVisualizer displayTransmissionState true
par car_network.visualizer.radioVisualizer displayAntennaLobes false
par car_network.visualizer.radioVisualizer radioFilter "\"**\""
attr mutable ""
par car_network.visualizer.radioVisualizer radioModeImages "\"block/process_vs block/timer_vs block/wrx_vs block/wtx_vs block/wrxtx_vs block/cogwheel_vs\""
par car_network.visualizer.radioVisualizer receptionStateImages "\"- - misc/receiving misc/receiving\""
par car_network.visualizer.radioVisualizer transmissionStateImages "\"- - misc/transmitting\""
par car_network.visualizer.radioVisualizer width 16
par car_network.visualizer.radioVisualizer height 16
par car_network.visualizer.radioVisualizer placementHint "\"bottomRight\""
par car_network.visualizer.radioVisualizer placementPriority 0
par car_network.visualizer.radioVisualizer antennaLobeNormalize false
par car_network.visualizer.radioVisualizer antennaLobeRelativeLabels false
par car_network.visualizer.radioVisualizer antennaLobePlaneGlobal true
par car_network.visualizer.radioVisualizer antennaLobePlane "\"view\""
attr enum view,xy,xz,yz
par car_network.visualizer.radioVisualizer antennaLobeMode "\"logarithmic\""
attr enum logarithmic,linear
par car_network.visualizer.radioVisualizer antennaLobeLogarithmicBase 10
par car_network.visualizer.radioVisualizer antennaLobeLogarithmicScale 100
par car_network.visualizer.radioVisualizer antennaLobeRadius 100
par car_network.visualizer.radioVisualizer antennaLobeStep 10deg
attr unit deg
par car_network.visualizer.radioVisualizer antennaLobeOpacity 0.25
par car_network.visualizer.radioVisualizer antennaLobeLineSmooth true
par car_network.visualizer.radioVisualizer antennaLobeLineColor "\"black\""
par car_network.visualizer.radioVisualizer antennaLobeLineStyle "\"solid\""
par car_network.visualizer.radioVisualizer antennaLobeLineWidth 1
par car_network.visualizer.radioVisualizer antennaLobeFillColor "\"white\""
par car_network.visualizer.radioVisualizer zIndex 10
par car_network.visualizer.physicalLinkVisualizer typename "\"inet.visualizer.canvas.physicallayer.PhysicalLinkCanvasVisualizer\""
par car_network.visualizer.physicalLinkVisualizer visualizationTargetModule "\"^.^\""
par car_network.visualizer.physicalLinkVisualizer visualizationSubjectModule "\"^.^\""
par car_network.visualizer.physicalLinkVisualizer tags "\"\""
par car_network.visualizer.physicalLinkVisualizer displayLinks false
par car_network.visualizer.physicalLinkVisualizer activityLevel "\"service\""
attr enum service,peer,protocol
par car_network.visualizer.physicalLinkVisualizer nodeFilter "\"*\""
attr mutable ""
par car_network.visualizer.physicalLinkVisualizer interfaceFilter "\"*\""
attr mutable ""
par car_network.visualizer.physicalLinkVisualizer packetFilter "(omnetpp::cValueHolder)holder: \"*\""
attr mutable ""
par car_network.visualizer.physicalLinkVisualizer lineColor "\"olive\""
par car_network.visualizer.physicalLinkVisualizer lineStyle "\"dotted\""
par car_network.visualizer.physicalLinkVisualizer lineWidth 3
par car_network.visualizer.physicalLinkVisualizer lineShift 16
par car_network.visualizer.physicalLinkVisualizer lineShiftMode "\"normal\""
par car_network.visualizer.physicalLinkVisualizer lineContactSpacing 3
par car_network.visualizer.physicalLinkVisualizer lineContactMode "\"rectangular\""
attr enum circular,rectangular
par car_network.visualizer.physicalLinkVisualizer labelFormat "\"%n\""
par car_network.visualizer.physicalLinkVisualizer labelFont "\"<default>, 8px\""
par car_network.visualizer.physicalLinkVisualizer labelColor "\"olive\""
par car_network.visualizer.physicalLinkVisualizer fadeOutMode "\"realTime\""
attr enum realTime,animationTime,simulationTime
par car_network.visualizer.physicalLinkVisualizer fadeOutTime 1s
attr unit s
par car_network.visualizer.physicalLinkVisualizer fadeOutAnimationSpeed 0
par car_network.visualizer.physicalLinkVisualizer holdAnimationTime 0s
attr unit s
par car_network.visualizer.physicalLinkVisualizer zIndex 1
par car_network.visualizer.interfaceTableVisualizer typename "\"inet.visualizer.canvas.linklayer.InterfaceTableCanvasVisualizer\""
par car_network.visualizer.interfaceTableVisualizer visualizationTargetModule "\"^.^\""
par car_network.visualizer.interfaceTableVisualizer visualizationSubjectModule "\"^.^\""
par car_network.visualizer.interfaceTableVisualizer tags "\"\""
par car_network.visualizer.interfaceTableVisualizer networkNodeVisualizerModule "\"^.networkNodeVisualizer\""
par car_network.visualizer.interfaceTableVisualizer displayInterfaceTables false
par car_network.visualizer.interfaceTableVisualizer displayWiredInterfacesAtConnections true
par car_network.visualizer.interfaceTableVisualizer displayBackground false
par car_network.visualizer.interfaceTableVisualizer nodeFilter "\"*\""
attr mutable ""
par car_network.visualizer.interfaceTableVisualizer interfaceFilter "\"not(lo*)\""
attr mutable ""
par car_network.visualizer.interfaceTableVisualizer format "\"%N %\\\\%a%/%l\""
attr mutable ""
par car_network.visualizer.interfaceTableVisualizer placementHint "\"top\""
par car_network.visualizer.interfaceTableVisualizer placementPriority 0
par car_network.visualizer.interfaceTableVisualizer font "\"<default>\""
par car_network.visualizer.interfaceTableVisualizer textColor "\"#005030\""
par car_network.visualizer.interfaceTableVisualizer backgroundColor "\"white\""
par car_network.visualizer.interfaceTableVisualizer opacity 1
par car_network.visualizer.interfaceTableVisualizer zIndex 10
par car_network.visualizer.dataLinkVisualizer typename "\"inet.visualizer.canvas.linklayer.DataLinkCanvasVisualizer\""
par car_network.visualizer.dataLinkVisualizer visualizationTargetModule "\"^.^\""
par car_network.visualizer.dataLinkVisualizer visualizationSubjectModule "\"^.^\""
par car_network.visualizer.dataLinkVisualizer tags "\"\""
par car_network.visualizer.dataLinkVisualizer displayLinks false
par car_network.visualizer.dataLinkVisualizer activityLevel "\"service\""
attr enum service,peer,protocol
par car_network.visualizer.dataLinkVisualizer nodeFilter "\"*\""
attr mutable ""
par car_network.visualizer.dataLinkVisualizer interfaceFilter "\"*\""
attr mutable ""
par car_network.visualizer.dataLinkVisualizer packetFilter "(omnetpp::cValueHolder)holder: \"*\""
attr mutable ""
par car_network.visualizer.dataLinkVisualizer lineColor "\"darkcyan\""
par car_network.visualizer.dataLinkVisualizer lineStyle "\"solid\""
par car_network.visualizer.dataLinkVisualizer lineWidth 3
par car_network.visualizer.dataLinkVisualizer lineShift 16
par car_network.visualizer.dataLinkVisualizer lineShiftMode "\"normal\""
par car_network.visualizer.dataLinkVisualizer lineContactSpacing 3
par car_network.visualizer.dataLinkVisualizer lineContactMode "\"rectangular\""
attr enum circular,rectangular
par car_network.visualizer.dataLinkVisualizer labelFormat "\"%n\""
par car_network.visualizer.dataLinkVisualizer labelFont "\"<default>, 8px\""
par car_network.visualizer.dataLinkVisualizer labelColor "\"darkcyan\""
par car_network.visualizer.dataLinkVisualizer fadeOutMode "\"realTime\""
attr enum realTime,animationTime,simulationTime
par car_network.visualizer.dataLinkVisualizer fadeOutTime 1s
attr unit s
par car_network.visualizer.dataLinkVisualizer fadeOutAnimationSpeed 0
par car_network.visualizer.dataLinkVisualizer holdAnimationTime 0s
attr unit s
par car_network.visualizer.dataLinkVisualizer zIndex 2
par car_network.visualizer.linkBreakVisualizer typename "\"inet.visualizer.canvas.linklayer.LinkBreakCanvasVisualizer\""
par car_network.visualizer.linkBreakVisualizer visualizationTargetModule "\"^.^\""
par car_network.visualizer.linkBreakVisualizer visualizationSubjectModule "\"^.^\""
par car_network.visualizer.linkBreakVisualizer tags "\"\""
par car_network.visualizer.linkBreakVisualizer displayLinkBreaks false
par car_network.visualizer.linkBreakVisualizer nodeFilter "\"*\""
attr mutable ""
par car_network.visualizer.linkBreakVisualizer interfaceFilter "\"*\""
attr mutable ""
par car_network.visualizer.linkBreakVisualizer packetFilter "(omnetpp::cValueHolder)holder: \"*\""
attr mutable ""
par car_network.visualizer.linkBreakVisualizer icon "\"status/stop\""
par car_network.visualizer.linkBreakVisualizer iconTintAmount 0
par car_network.visualizer.linkBreakVisualizer iconTintColor "\"\""
par car_network.visualizer.linkBreakVisualizer fadeOutMode "\"realTime\""
attr enum realTime,animationTime,simulationTime
par car_network.visualizer.linkBreakVisualizer fadeOutTime 1s
attr unit s
par car_network.visualizer.linkBreakVisualizer fadeOutAnimationSpeed 0
par car_network.visualizer.linkBreakVisualizer zIndex 2
par car_network.visualizer.ieee80211Visualizer typename "\"inet.visualizer.canvas.linklayer.Ieee80211CanvasVisualizer\""
par car_network.visualizer.ieee80211Visualizer visualizationTargetModule "\"^.^\""
par car_network.visualizer.ieee80211Visualizer visualizationSubjectModule "\"^.^\""
par car_network.visualizer.ieee80211Visualizer tags "\"\""
par car_network.visualizer.ieee80211Visualizer networkNodeVisualizerModule "\"^.networkNodeVisualizer\""
par car_network.visualizer.ieee80211Visualizer displayAssociations false
par car_network.visualizer.ieee80211Visualizer nodeFilter "\"*\""
attr mutable ""
par car_network.visualizer.ieee80211Visualizer interfaceFilter "\"*\""
attr mutable ""
par car_network.visualizer.ieee80211Visualizer minPower -85dBm
attr unit dBm
par car_network.visualizer.ieee80211Visualizer maxPower -50dBm
attr unit dBm
par car_network.visualizer.ieee80211Visualizer icons "\"misc/signal_power_0 misc/signal_power_1 misc/signal_power_2 misc/signal_power_3\""
par car_network.visualizer.ieee80211Visualizer iconColor "\"dark\""
attr enum light,dark
par car_network.visualizer.ieee80211Visualizer labelFont "\"<default>\""
par car_network.visualizer.ieee80211Visualizer labelColor "\"black\""
par car_network.visualizer.ieee80211Visualizer placementHint "\"top\""
par car_network.visualizer.ieee80211Visualizer placementPriority 0
par car_network.visualizer.ieee80211Visualizer zIndex 2
par car_network.visualizer.networkRouteVisualizer typename "\"inet.visualizer.canvas.networklayer.NetworkRouteCanvasVisualizer\""
par car_network.visualizer.networkRouteVisualizer visualizationTargetModule "\"^.^\""
par car_network.visualizer.networkRouteVisualizer visualizationSubjectModule "\"^.^\""
par car_network.visualizer.networkRouteVisualizer tags "\"\""
par car_network.visualizer.networkRouteVisualizer displayRoutes false
par car_network.visualizer.networkRouteVisualizer startPathSignal "\"packetReceivedFromUpper\""
par car_network.visualizer.networkRouteVisualizer extendPathSignal "\"packetReceivedFromLower\""
par car_network.visualizer.networkRouteVisualizer endPathSignal "\"packetSentToUpper\""
par car_network.visualizer.networkRouteVisualizer nodeFilter "\"*\""
attr mutable ""
par car_network.visualizer.networkRouteVisualizer packetFilter "(omnetpp::cValueHolder)holder: \"*\""
attr mutable ""
par car_network.visualizer.networkRouteVisualizer lineColor "\"dark\""
attr enum light,dark
par car_network.visualizer.networkRouteVisualizer lineStyle "\"solid\""
par car_network.visualizer.networkRouteVisualizer lineWidth 3
par car_network.visualizer.networkRouteVisualizer lineSmooth false
par car_network.visualizer.networkRouteVisualizer lineShift 16
par car_network.visualizer.networkRouteVisualizer lineShiftMode "\"normal\""
par car_network.visualizer.networkRouteVisualizer lineContactSpacing 3
par car_network.visualizer.networkRouteVisualizer lineContactMode "\"rectangular\""
attr enum circular,rectangular
par car_network.visualizer.networkRouteVisualizer labelFormat "\"%n\""
par car_network.visualizer.networkRouteVisualizer labelFont "\"<default>, 8px\""
par car_network.visualizer.networkRouteVisualizer labelColor "\"\""
par car_network.visualizer.networkRouteVisualizer fadeOutMode "\"realTime\""
attr enum realTime,animationTime,simulationTime
par car_network.visualizer.networkRouteVisualizer fadeOutTime 1s
attr unit s
par car_network.visualizer.networkRouteVisualizer fadeOutAnimationSpeed 0
par car_network.visualizer.networkRouteVisualizer zIndex 3
par car_network.visualizer.routingTableVisualizer typename "\"inet.visualizer.canvas.networklayer.RoutingTableCanvasVisualizer\""
par car_network.visualizer.routingTableVisualizer visualizationTargetModule "\"^.^\""
par car_network.visualizer.routingTableVisualizer visualizationSubjectModule "\"^.^\""
par car_network.visualizer.routingTableVisualizer tags "\"\""
par car_network.visualizer.routingTableVisualizer displayRoutingTables false
par car_network.visualizer.routingTableVisualizer displayRoutesIndividually true
par car_network.visualizer.routingTableVisualizer displayLabels true
par car_network.visualizer.routingTableVisualizer destinationFilter "\"*\""
attr mutable ""
par car_network.visualizer.routingTableVisualizer nodeFilter "\"*\""
attr mutable ""
par car_network.visualizer.routingTableVisualizer lineColor "\"black\""
par car_network.visualizer.routingTableVisualizer lineStyle "\"solid\""
par car_network.visualizer.routingTableVisualizer lineWidth 2
par car_network.visualizer.routingTableVisualizer lineShift 16
par car_network.visualizer.routingTableVisualizer lineShiftMode "\"normal\""
par car_network.visualizer.routingTableVisualizer lineContactSpacing 3
par car_network.visualizer.routingTableVisualizer lineContactMode "\"rectangular\""
attr enum circular,rectangular
par car_network.visualizer.routingTableVisualizer labelFormat "\"%d/%m -> %g (%n)\""
attr mutable ""
par car_network.visualizer.routingTableVisualizer labelFont "\"<default>, 8px\""
par car_network.visualizer.routingTableVisualizer labelColor "\"black\""
par car_network.visualizer.routingTableVisualizer zIndex 0
par car_network.visualizer.transportRouteVisualizer typename "\"inet.visualizer.canvas.transportlayer.TransportRouteCanvasVisualizer\""
par car_network.visualizer.transportRouteVisualizer visualizationTargetModule "\"^.^\""
par car_network.visualizer.transportRouteVisualizer visualizationSubjectModule "\"^.^\""
par car_network.visualizer.transportRouteVisualizer tags "\"\""
par car_network.visualizer.transportRouteVisualizer displayRoutes false
par car_network.visualizer.transportRouteVisualizer startPathSignal "\"packetReceivedFromUpper\""
par car_network.visualizer.transportRouteVisualizer extendPathSignal "\"packetReceivedFromLower\""
par car_network.visualizer.transportRouteVisualizer endPathSignal "\"packetSentToUpper\""
par car_network.visualizer.transportRouteVisualizer nodeFilter "\"*\""
attr mutable ""
par car_network.visualizer.transportRouteVisualizer packetFilter "(omnetpp::cValueHolder)holder: \"*\""
attr mutable ""
par car_network.visualizer.transportRouteVisualizer lineColor "\"dark\""
attr enum light,dark
par car_network.visualizer.transportRouteVisualizer lineStyle "\"solid\""
par car_network.visualizer.transportRouteVisualizer lineWidth 3
par car_network.visualizer.transportRouteVisualizer lineSmooth false
par car_network.visualizer.transportRouteVisualizer lineShift 16
par car_network.visualizer.transportRouteVisualizer lineShiftMode "\"normal\""
par car_network.visualizer.transportRouteVisualizer lineContactSpacing 3
par car_network.visualizer.transportRouteVisualizer lineContactMode "\"rectangular\""
attr enum circular,rectangular
par car_network.visualizer.transportRouteVisualizer labelFormat "\"%n\""
par car_network.visualizer.transportRouteVisualizer labelFont "\"<default>, 8px\""
par car_network.visualizer.transportRouteVisualizer labelColor "\"\""
par car_network.visualizer.transportRouteVisualizer fadeOutMode "\"realTime\""
attr enum realTime,animationTime,simulationTime
par car_network.visualizer.transportRouteVisualizer fadeOutTime 1s
attr unit s
par car_network.visualizer.transportRouteVisualizer fadeOutAnimationSpeed 0
par car_network.visualizer.transportRouteVisualizer zIndex 4
par car_network.visualizer.transportConnectionVisualizer typename "\"inet.visualizer.canvas.transportlayer.TransportConnectionCanvasVisualizer\""
par car_network.visualizer.transportConnectionVisualizer visualizationTargetModule "\"^.^\""
par car_network.visualizer.transportConnectionVisualizer visualizationSubjectModule "\"^.^\""
par car_network.visualizer.transportConnectionVisualizer tags "\"\""
par car_network.visualizer.transportConnectionVisualizer networkNodeVisualizerModule "\"^.networkNodeVisualizer\""
par car_network.visualizer.transportConnectionVisualizer displayTransportConnections false
par car_network.visualizer.transportConnectionVisualizer sourceNodeFilter "\"*\""
attr mutable ""
par car_network.visualizer.transportConnectionVisualizer sourcePortFilter "\"*\""
attr mutable ""
par car_network.visualizer.transportConnectionVisualizer destinationNodeFilter "\"*\""
attr mutable ""
par car_network.visualizer.transportConnectionVisualizer destinationPortFilter "\"*\""
attr mutable ""
par car_network.visualizer.transportConnectionVisualizer icon "\"misc/marker_s\""
par car_network.visualizer.transportConnectionVisualizer iconColor "\"dark\""
attr enum light,dark
par car_network.visualizer.transportConnectionVisualizer labelFont "\"<default>\""
par car_network.visualizer.transportConnectionVisualizer labelColor "\"black\""
par car_network.visualizer.transportConnectionVisualizer placementHint "\"top\""
par car_network.visualizer.transportConnectionVisualizer placementPriority 0
par car_network.visualizer.transportConnectionVisualizer zIndex 4
par car_network.visualizer.failureProtectionConfigurationVisualizer typename "\"inet.visualizer.canvas.configurator.FailureProtectionConfigurationCanvasVisualizer\""
par car_network.visualizer.failureProtectionConfigurationVisualizer visualizationTargetModule "\"^.^\""
par car_network.visualizer.failureProtectionConfigurationVisualizer visualizationSubjectModule "\"^.^\""
par car_network.visualizer.failureProtectionConfigurationVisualizer tags "\"\""
par car_network.visualizer.failureProtectionConfigurationVisualizer displayTrees false
par car_network.visualizer.failureProtectionConfigurationVisualizer lineColor "\"dark\""
attr enum light,dark
par car_network.visualizer.failureProtectionConfigurationVisualizer lineStyle "\"solid\""
par car_network.visualizer.failureProtectionConfigurationVisualizer lineWidth 3
par car_network.visualizer.failureProtectionConfigurationVisualizer lineSmooth false
par car_network.visualizer.failureProtectionConfigurationVisualizer lineShift 16
par car_network.visualizer.failureProtectionConfigurationVisualizer lineShiftMode "\"normal\""
par car_network.visualizer.failureProtectionConfigurationVisualizer lineContactSpacing 3
par car_network.visualizer.failureProtectionConfigurationVisualizer lineContactMode "\"rectangular\""
attr enum circular,rectangular
par car_network.visualizer.failureProtectionConfigurationVisualizer failureProtectionConfiguratorModule "\"failureProtectionConfigurator\""
par car_network.visualizer.failureProtectionConfigurationVisualizer streamFilter "\"*\""
par car_network.visualizer.failureProtectionConfigurationVisualizer zIndex 3
par car_network.visualizer.streamRedundancyConfigurationVisualizer typename "\"inet.visualizer.canvas.configurator.StreamRedundancyConfigurationCanvasVisualizer\""
par car_network.visualizer.streamRedundancyConfigurationVisualizer visualizationTargetModule "\"^.^\""
par car_network.visualizer.streamRedundancyConfigurationVisualizer visualizationSubjectModule "\"^.^\""
par car_network.visualizer.streamRedundancyConfigurationVisualizer tags "\"\""
par car_network.visualizer.streamRedundancyConfigurationVisualizer displayTrees false
par car_network.visualizer.streamRedundancyConfigurationVisualizer lineColor "\"dark\""
attr enum light,dark
par car_network.visualizer.streamRedundancyConfigurationVisualizer lineStyle "\"solid\""
par car_network.visualizer.streamRedundancyConfigurationVisualizer lineWidth 3
par car_network.visualizer.streamRedundancyConfigurationVisualizer lineSmooth false
par car_network.visualizer.streamRedundancyConfigurationVisualizer lineShift 16
par car_network.visualizer.streamRedundancyConfigurationVisualizer lineShiftMode "\"normal\""
par car_network.visualizer.streamRedundancyConfigurationVisualizer lineContactSpacing 3
par car_network.visualizer.streamRedundancyConfigurationVisualizer lineContactMode "\"rectangular\""
attr enum circular,rectangular
par car_network.visualizer.streamRedundancyConfigurationVisualizer streamRedundancyConfiguratorModule "\"streamRedundancyConfigurator\""
par car_network.visualizer.streamRedundancyConfigurationVisualizer streamFilter "\"*\""
par car_network.visualizer.streamRedundancyConfigurationVisualizer zIndex 3
par car_network.visualizer typename "\"inet.visualizer.canvas.integrated.IntegratedCanvasVisualizer\""
par car_network.configurator typename "\"inet.networklayer.configurator.ipv4.Ipv4NetworkConfigurator\""
par car_network.configurator minLinkWeight 0.001
par car_network.configurator configureIsolatedNetworksSeparatly false
par car_network.configurator config "<config>...</config> at content:1"
par car_network.configurator assignAddresses true
par car_network.configurator assignUniqueAddresses true
par car_network.configurator assignDisjunctSubnetAddresses true
par car_network.configurator addStaticRoutes true
par car_network.configurator addDefaultRoutes true
par car_network.configurator addSubnetRoutes true
par car_network.configurator addDirectRoutes true
par car_network.configurator optimizeRoutes true
par car_network.configurator dumpTopology false
par car_network.configurator dumpLinks false
par car_network.configurator dumpAddresses false
par car_network.configurator dumpRoutes false
par car_network.configurator dumpConfig "\"\""
par car_network.macForwardingTableConfigurator typename "\"inet.linklayer.configurator.MacForwardingTableConfigurator\""
par car_network.Switch1.eth[0].phys$o.channel typename "\"ned.IdealChannel\""
par car_network.Switch1.ethg$i[0].channel typename "\"ned.IdealChannel\""
par car_network.Switch1.eth[1].phys$o.channel typename "\"ned.IdealChannel\""
par car_network.Switch1.ethg$i[1].channel typename "\"ned.IdealChannel\""
par car_network.Switch1.eth[2].phys$o.channel typename "\"ned.IdealChannel\""
par car_network.Switch1.ethg$i[2].channel typename "\"ned.IdealChannel\""
par car_network.Switch1.eth[3].phys$o.channel typename "\"ned.IdealChannel\""
par car_network.Switch1.ethg$i[3].channel typename "\"ned.IdealChannel\""
par car_network.Switch1.eth[4].phys$o.channel typename "\"ned.IdealChannel\""
par car_network.Switch1.ethg$i[4].channel typename "\"ned.IdealChannel\""
par car_network.Switch1.eth[5].phys$o.channel typename "\"ned.IdealChannel\""
par car_network.Switch1.ethg$i[5].channel typename "\"ned.IdealChannel\""
par car_network.Switch1.macTable typename "\"inet.linklayer.ethernet.common.MacForwardingTable\""
par car_network.Switch1.macTable agingTime 120s
attr unit s
par car_network.Switch1.macTable forwardingTable "[{address: \"0A-AA-00-00-00-0E\", interface: \"eth2\"}, {address: \"0A-AA-00-00-00-0F\", interface: \"eth3\"}, {address: \"0A-AA-00-00-00-10\", interface: \"eth4\"}, {address: \"0A-AA-00-00-00-11\", interface: \"eth5\"}, {address: \"0A-AA-00-00-00-12\", interface: \"eth0\"}, {address: \"0A-AA-00-00-00-13\", interface: \"eth0\"}, {address: \"0A-AA-00-00-00-14\", interface: \"eth0\"}, {address: \"0A-AA-00-00-00-15\", interface: \"eth0\"}, {address: \"0A-AA-00-00-00-16\", interface: \"eth0\"}, {address: \"01-00-5E-00-00-01\", interface: \"eth1\"}, {address: \"01-00-5E-00-00-01\", interface: \"eth2\"}, {address: \"01-00-5E-00-00-01\", interface: \"eth3\"}, {address: \"01-00-5E-00-00-01\", interface: \"eth4\"}, {address: \"01-00-5E-00-00-01\", interface: \"eth5\"}, {address: \"01-00-5E-00-00-01\", interface: \"eth0\"}]"
attr mutable ""
par car_network.Switch1.macTable forwardingTableFile "\"\""
par car_network.Switch1.macTable interfaceTableModule "\"car_network.Switch1.interfaceTable\""
par car_network.Switch1.macTable displayStringTextFormat "\"addr: %a\\nvlan: %v\""
par car_network.Switch1.interfaceTable typename "\"inet.networklayer.common.InterfaceTable\""
par car_network.Switch1.interfaceTable displayAddresses false
par car_network.Switch1.sc typename "\"inet.common.MessageDispatcher\""
par car_network.Switch1.sc displayStringTextFormat "\"processed %p pk (%l)\""
par car_network.Switch1.sc forwardServiceRegistration true
par car_network.Switch1.sc forwardProtocolRegistration true
par car_network.Switch1.cb typename "\"inet.common.MessageDispatcher\""
par car_network.Switch1.cb displayStringTextFormat "\"processed %p pk (%l)\""
par car_network.Switch1.cb forwardServiceRegistration true
par car_network.Switch1.cb forwardProtocolRegistration true
par car_network.Switch1.bridging.directionReverser.upperLayerIn.channel typename "\"ned.IdealChannel\""
par car_network.Switch1.bridging.directionReverser.join.out.channel typename "\"ned.IdealChannel\""
par car_network.Switch1.bridging.directionReverser.lowerLayerIn.channel typename "\"ned.IdealChannel\""
par car_network.Switch1.bridging.directionReverser.fork.out[0].channel typename "\"ned.IdealChannel\""
par car_network.Switch1.bridging.directionReverser.fork typename "\"inet.common.MessageDispatcher\""
par car_network.Switch1.bridging.directionReverser.fork displayStringTextFormat "\"processed %p pk (%l)\""
par car_network.Switch1.bridging.directionReverser.fork forwardServiceRegistration false
par car_network.Switch1.bridging.directionReverser.fork forwardProtocolRegistration true
par car_network.Switch1.bridging.directionReverser.reverser typename "\"inet.linklayer.ethernet.common.PacketDirectionReverser\""
par car_network.Switch1.bridging.directionReverser.reverser displayStringTextFormat "\"processed %p pk (%l)\""
par car_network.Switch1.bridging.directionReverser.reverser forwardVlan true
par car_network.Switch1.bridging.directionReverser.reverser forwardPcp true
par car_network.Switch1.bridging.directionReverser.reverser excludeEncapsulationProtocols "[\"ieee8021qctag\"]"
scalar car_network.Switch1.bridging.directionReverser.reverser outgoingPackets:count 1
attr recordingmode count
attr source "merge(packetPushedOut, packetPulledOut)"
attr title "outgoing packets, count"
attr unit pk
scalar car_network.Switch1.bridging.directionReverser.reverser outgoingPacketLengths:sum 1248
attr interpolationmode none
attr recordingmode sum
attr source "packetLength(merge(packetPushedOut, packetPulledOut))"
attr title "outgoing packet lengths, sum"
attr unit b
statistic car_network.Switch1.bridging.directionReverser.reverser outgoingPacketLengths:histogram
field count 1
field mean 1248
field stddev nan
field min 1248
field max 1248
field sum 1248
field sqrsum 1557504
attr interpolationmode none
attr recordingmode histogram
attr source "packetLength(merge(packetPushedOut, packetPulledOut))"
attr title "outgoing packet lengths"
attr unit b
bin	-inf	0
bin	1247	0
bin	1248	1
bin	1249	0
scalar car_network.Switch1.bridging.directionReverser.reverser flowOutgoingPacketLengths:sum 0
attr interpolationmode none
attr recordingmode sum
attr source "packetLength(demuxFlow(merge(packetPushedOut, packetPulledOut)))"
attr title "flow specific outgoing packet lengths, sum"
attr unit b
statistic car_network.Switch1.bridging.directionReverser.reverser flowOutgoingPacketLengths:histogram
field count 0
field mean nan
field stddev nan
field min nan
field max nan
field sum 0
field sqrsum 0
attr interpolationmode none
attr recordingmode histogram
attr source "packetLength(demuxFlow(merge(packetPushedOut, packetPulledOut)))"
attr title "flow specific outgoing packet lengths"
attr unit b
bin	-inf	0
bin	0	0
bin	1	0
scalar car_network.Switch1.bridging.directionReverser.reverser incomingPackets:count 1
attr recordingmode count
attr source "merge(packetPushedIn, packetPulledIn)"
attr title "incoming packets, count"
attr unit pk
scalar car_network.Switch1.bridging.directionReverser.reverser incomingPacketLengths:sum 1248
attr interpolationmode none
attr recordingmode sum
attr source "packetLength(merge(packetPushedIn, packetPulledIn))"
attr title "incoming packet lengths, sum"
attr unit b
statistic car_network.Switch1.bridging.directionReverser.reverser incomingPacketLengths:histogram
field count 1
field mean 1248
field stddev nan
field min 1248
field max 1248
field sum 1248
field sqrsum 1557504
attr interpolationmode none
attr recordingmode histogram
attr source "packetLength(merge(packetPushedIn, packetPulledIn))"
attr title "incoming packet lengths"
attr unit b
bin	-inf	0
bin	1247	0
bin	1248	1
bin	1249	0
scalar car_network.Switch1.bridging.directionReverser.reverser flowIncomingPacketLengths:sum 0
attr interpolationmode none
attr recordingmode sum
attr source "packetLength(demuxFlow(merge(packetPushedIn, packetPulledIn)))"
attr title "flow specific incoming packet lengths, sum"
attr unit b
statistic car_network.Switch1.bridging.directionReverser.reverser flowIncomingPacketLengths:histogram
field count 0
field mean nan
field stddev nan
field min nan
field max nan
field sum 0
field sqrsum 0
attr interpolationmode none
attr recordingmode histogram
attr source "packetLength(demuxFlow(merge(packetPushedIn, packetPulledIn)))"
attr title "flow specific incoming packet lengths"
attr unit b
bin	-inf	0
bin	0	0
bin	1	0
par car_network.Switch1.bridging.directionReverser.join typename "\"inet.queueing.common.PacketMultiplexer\""
par car_network.Switch1.bridging.directionReverser.join displayStringTextFormat "\"passed %p pk (%l)\""
par car_network.Switch1.bridging.directionReverser.join forwardServiceRegistration true
par car_network.Switch1.bridging.directionReverser.join forwardProtocolRegistration false
scalar car_network.Switch1.bridging.directionReverser.join packets:count 0
attr recordingmode count
attr source "merge(packetPushed, packetPulled)"
attr title "packets, count"
attr unit pk
scalar car_network.Switch1.bridging.directionReverser.join packetLengths:sum 0
attr interpolationmode none
attr recordingmode sum
attr source "packetLength(merge(packetPushed, packetPulled))"
attr title "packet lengths, sum"
attr unit b
statistic car_network.Switch1.bridging.directionReverser.join packetLengths:histogram
field count 0
field mean nan
field stddev nan
field min nan
field max nan
field sum 0
field sqrsum 0
attr interpolationmode none
attr recordingmode histogram
attr source "packetLength(merge(packetPushed, packetPulled))"
attr title "packet lengths"
attr unit b
bin	-inf	0
bin	0	0
bin	1	0
par car_network.Switch1.bridging.directionReverser typename "\"inet.linklayer.ethernet.common.DirectionReverserLayer\""
par car_network.Switch1.bridging.interfaceRelay.upperLayerIn.channel typename "\"ned.IdealChannel\""
par car_network.Switch1.bridging.interfaceRelay.selector.out.channel typename "\"ned.IdealChannel\""
par car_network.Switch1.bridging.interfaceRelay.lowerLayerIn.channel typename "\"ned.IdealChannel\""
par car_network.Switch1.bridging.interfaceRelay.learner.out.channel typename "\"ned.IdealChannel\""
par car_network.Switch1.bridging.interfaceRelay.learner typename "\"inet.linklayer.ethernet.common.RelayInterfaceLearner\""
par car_network.Switch1.bridging.interfaceRelay.learner displayStringTextFormat "\"processed %p pk (%l)\""
par car_network.Switch1.bridging.interfaceRelay.learner macTableModule "\"car_network.Switch1.macTable\""
par car_network.Switch1.bridging.interfaceRelay.learner interfaceTableModule "\"car_network.Switch1.interfaceTable\""
scalar car_network.Switch1.bridging.interfaceRelay.learner outgoingPackets:count 1
attr recordingmode count
attr source "merge(packetPushedOut, packetPulledOut)"
attr title "outgoing packets, count"
attr unit pk
scalar car_network.Switch1.bridging.interfaceRelay.learner outgoingPacketLengths:sum 1248
attr interpolationmode none
attr recordingmode sum
attr source "packetLength(merge(packetPushedOut, packetPulledOut))"
attr title "outgoing packet lengths, sum"
attr unit b
statistic car_network.Switch1.bridging.interfaceRelay.learner outgoingPacketLengths:histogram
field count 1
field mean 1248
field stddev nan
field min 1248
field max 1248
field sum 1248
field sqrsum 1557504
attr interpolationmode none
attr recordingmode histogram
attr source "packetLength(merge(packetPushedOut, packetPulledOut))"
attr title "outgoing packet lengths"
attr unit b
bin	-inf	0
bin	1247	0
bin	1248	1
bin	1249	0
scalar car_network.Switch1.bridging.interfaceRelay.learner flowOutgoingPacketLengths:sum 0
attr interpolationmode none
attr recordingmode sum
attr source "packetLength(demuxFlow(merge(packetPushedOut, packetPulledOut)))"
attr title "flow specific outgoing packet lengths, sum"
attr unit b
statistic car_network.Switch1.bridging.interfaceRelay.learner flowOutgoingPacketLengths:histogram
field count 0
field mean nan
field stddev nan
field min nan
field max nan
field sum 0
field sqrsum 0
attr interpolationmode none
attr recordingmode histogram
attr source "packetLength(demuxFlow(merge(packetPushedOut, packetPulledOut)))"
attr title "flow specific outgoing packet lengths"
attr unit b
bin	-inf	0
bin	0	0
bin	1	0
scalar car_network.Switch1.bridging.interfaceRelay.learner incomingPackets:count 1
attr recordingmode count
attr source "merge(packetPushedIn, packetPulledIn)"
attr title "incoming packets, count"
attr unit pk
scalar car_network.Switch1.bridging.interfaceRelay.learner incomingPacketLengths:sum 1248
attr interpolationmode none
attr recordingmode sum
attr source "packetLength(merge(packetPushedIn, packetPulledIn))"
attr title "incoming packet lengths, sum"
attr unit b
statistic car_network.Switch1.bridging.interfaceRelay.learner incomingPacketLengths:histogram
field count 1
field mean 1248
field stddev nan
field min 1248
field max 1248
field sum 1248
field sqrsum 1557504
attr interpolationmode none
attr recordingmode histogram
attr source "packetLength(merge(packetPushedIn, packetPulledIn))"
attr title "incoming packet lengths"
attr unit b
bin	-inf	0
bin	1247	0
bin	1248	1
bin	1249	0
scalar car_network.Switch1.bridging.interfaceRelay.learner flowIncomingPacketLengths:sum 0
attr interpolationmode none
attr recordingmode sum
attr source "packetLength(demuxFlow(merge(packetPushedIn, packetPulledIn)))"
attr title "flow specific incoming packet lengths, sum"
attr unit b
statistic car_network.Switch1.bridging.interfaceRelay.learner flowIncomingPacketLengths:histogram
field count 0
field mean nan
field stddev nan
field min nan
field max nan
field sum 0
field sqrsum 0
attr interpolationmode none
attr recordingmode histogram
attr source "packetLength(demuxFlow(merge(packetPushedIn, packetPulledIn)))"
attr title "flow specific incoming packet lengths"
attr unit b
bin	-inf	0
bin	0	0
bin	1	0
par car_network.Switch1.bridging.interfaceRelay.selector typename "\"inet.linklayer.ethernet.common.RelayInterfaceSelector\""
par car_network.Switch1.bridging.interfaceRelay.selector displayStringTextFormat "\"processed %p pk (%l)\""
par car_network.Switch1.bridging.interfaceRelay.selector macTableModule "\"car_network.Switch1.macTable\""
par car_network.Switch1.bridging.interfaceRelay.selector interfaceTableModule "\"car_network.Switch1.interfaceTable\""
scalar car_network.Switch1.bridging.interfaceRelay.selector packetDropped:count 0
attr interpolationmode none
attr recordingmode count
attr title "packets dropped, count"
scalar car_network.Switch1.bridging.interfaceRelay.selector packetDropped:sum(packetBytes) 0
attr interpolationmode none
attr recordingmode sum(packetBytes)
attr title "packets dropped, sum(packetBytes)"
par car_network.Switch1.bridging.interfaceRelay typename "\"inet.linklayer.ethernet.common.InterfaceRelayLayer\""
par car_network.Switch1.bridging.interfaceRelay macTableModule "\"car_network.Switch1.macTable\""
par car_network.Switch1.bridging.interfaceRelay interfaceTableModule "\"car_network.Switch1.interfaceTable\""
par car_network.Switch1.bridging typename "\"inet.linklayer.ethernet.common.BridgingLayer\""
par car_network.Switch1.bridging macTableModule "\"car_network.Switch1.macTable\""
par car_network.Switch1.bridging interfaceTableModule "\"car_network.Switch1.interfaceTable\""
par car_network.Switch1.bl typename "\"inet.common.MessageDispatcher\""
par car_network.Switch1.bl displayStringTextFormat "\"processed %p pk (%l)\""
par car_network.Switch1.bl forwardServiceRegistration true
par car_network.Switch1.bl forwardProtocolRegistration true
par car_network.Switch1.ethernet.fcsInserter.out.channel typename "\"ned.IdealChannel\""
par car_network.Switch1.ethernet.lowerLayerIn.channel typename "\"ned.IdealChannel\""
par car_network.Switch1.ethernet.upperLayerIn.channel typename "\"ned.IdealChannel\""
par car_network.Switch1.ethernet.macHeaderChecker.out.channel typename "\"ned.IdealChannel\""
par car_network.Switch1.ethernet.macHeaderInserter typename "\"inet.linklayer.ethernet.modular.EthernetMacHeaderInserter\""
par car_network.Switch1.ethernet.macHeaderInserter displayStringTextFormat "\"processed %p pk (%l)\""
par car_network.Switch1.ethernet.macHeaderInserter interfaceTableModule "\"car_network.Switch1.interfaceTable\""
scalar car_network.Switch1.ethernet.macHeaderInserter outgoingPackets:count 5
attr recordingmode count
attr source "merge(packetPushedOut, packetPulledOut)"
attr title "outgoing packets, count"
attr unit pk
scalar car_network.Switch1.ethernet.macHeaderInserter outgoingPacketLengths:sum 6800
attr interpolationmode none
attr recordingmode sum
attr source "packetLength(merge(packetPushedOut, packetPulledOut))"
attr title "outgoing packet lengths, sum"
attr unit b
statistic car_network.Switch1.ethernet.macHeaderInserter outgoingPacketLengths:histogram
field count 5
field mean 1360
field stddev 0
field min 1360
field max 1360
field sum 6800
field sqrsum 9248000
attr interpolationmode none
attr recordingmode histogram
attr source "packetLength(merge(packetPushedOut, packetPulledOut))"
attr title "outgoing packet lengths"
attr unit b
bin	-inf	0
bin	1359	0
bin	1360	5
bin	1361	0
scalar car_network.Switch1.ethernet.macHeaderInserter flowOutgoingPacketLengths:sum 0
attr interpolationmode none
attr recordingmode sum
attr source "packetLength(demuxFlow(merge(packetPushedOut, packetPulledOut)))"
attr title "flow specific outgoing packet lengths, sum"
attr unit b
statistic car_network.Switch1.ethernet.macHeaderInserter flowOutgoingPacketLengths:histogram
field count 0
field mean nan
field stddev nan
field min nan
field max nan
field sum 0
field sqrsum 0
attr interpolationmode none
attr recordingmode histogram
attr source "packetLength(demuxFlow(merge(packetPushedOut, packetPulledOut)))"
attr title "flow specific outgoing packet lengths"
attr unit b
bin	-inf	0
bin	0	0
bin	1	0
scalar car_network.Switch1.ethernet.macHeaderInserter incomingPackets:count 5
attr recordingmode count
attr source "merge(packetPushedIn, packetPulledIn)"
attr title "incoming packets, count"
attr unit pk
scalar car_network.Switch1.ethernet.macHeaderInserter incomingPacketLengths:sum 6240
attr interpolationmode none
attr recordingmode sum
attr source "packetLength(merge(packetPushedIn, packetPulledIn))"
attr title "incoming packet lengths, sum"
attr unit b
statistic car_network.Switch1.ethernet.macHeaderInserter incomingPacketLengths:histogram
field count 5
field mean 1248
field stddev 0
field min 1248
field max 1248
field sum 6240
field sqrsum 7787520
attr interpolationmode none
attr recordingmode histogram
attr source "packetLength(merge(packetPushedIn, packetPulledIn))"
attr title "incoming packet lengths"
attr unit b
bin	-inf	0
bin	1247	0
bin	1248	5
bin	1249	0
scalar car_network.Switch1.ethernet.macHeaderInserter flowIncomingPacketLengths:sum 0
attr interpolationmode none
attr recordingmode sum
attr source "packetLength(demuxFlow(merge(packetPushedIn, packetPulledIn)))"
attr title "flow specific incoming packet lengths, sum"
attr unit b
statistic car_network.Switch1.ethernet.macHeaderInserter flowIncomingPacketLengths:histogram
field count 0
field mean nan
field stddev nan
field min nan
field max nan
field sum 0
field sqrsum 0
attr interpolationmode none
attr recordingmode histogram
attr source "packetLength(demuxFlow(merge(packetPushedIn, packetPulledIn)))"
attr title "flow specific incoming packet lengths"
attr unit b
bin	-inf	0
bin	0	0
bin	1	0
par car_network.Switch1.ethernet.paddingInserter typename "\"inet.protocolelement.common.PaddingInserter\""
par car_network.Switch1.ethernet.paddingInserter displayStringTextFormat "\"processed %p pk (%l)\""
par car_network.Switch1.ethernet.paddingInserter minLength 480b
attr unit b
par car_network.Switch1.ethernet.paddingInserter roundingLength 8b
attr unit b
par car_network.Switch1.ethernet.paddingInserter insertionPosition "\"back\""
attr enum front,back
scalar car_network.Switch1.ethernet.paddingInserter outgoingPackets:count 5
attr recordingmode count
attr source "merge(packetPushedOut, packetPulledOut)"
attr title "outgoing packets, count"
attr unit pk
scalar car_network.Switch1.ethernet.paddingInserter outgoingPacketLengths:sum 6800
attr interpolationmode none
attr recordingmode sum
attr source "packetLength(merge(packetPushedOut, packetPulledOut))"
attr title "outgoing packet lengths, sum"
attr unit b
statistic car_network.Switch1.ethernet.paddingInserter outgoingPacketLengths:histogram
field count 5
field mean 1360
field stddev 0
field min 1360
field max 1360
field sum 6800
field sqrsum 9248000
attr interpolationmode none
attr recordingmode histogram
[...]
attr interpolationmode none
attr recordingmode sum
attr source packetLength(demuxFlow(packetDropped))
attr title "flow specific dropped packet lengths, sum"
attr unit b
statistic car_network.CU.eth[0].phyLayer.phyHeaderChecker flowDroppedPacketLengths:histogram
field count 0
field mean nan
field stddev nan
field min nan
field max nan
field sum 0
field sqrsum 0
attr interpolationmode none
attr recordingmode histogram
attr source packetLength(demuxFlow(packetDropped))
attr title "flow specific dropped packet lengths"
attr unit b
bin	-inf	0
bin	0	0
bin	1	0
par car_network.CU.eth[0].phyLayer.inboundEmitter typename "\"inet.protocolelement.common.PacketEmitter\""
par car_network.CU.eth[0].phyLayer.inboundEmitter displayStringTextFormat "\"processed %p pk (%l)\""
par car_network.CU.eth[0].phyLayer.inboundEmitter packetFilter "(omnetpp::cValueHolder)holder: \"*\""
par car_network.CU.eth[0].phyLayer.inboundEmitter direction "\"inbound\""
attr enum undefined,inbound,outbound
par car_network.CU.eth[0].phyLayer.inboundEmitter signalName "\"packetReceivedFromLower\""
scalar car_network.CU.eth[0].phyLayer.inboundEmitter outgoingPackets:count 0
attr recordingmode count
attr source "merge(packetPushedOut, packetPulledOut)"
attr title "outgoing packets, count"
attr unit pk
scalar car_network.CU.eth[0].phyLayer.inboundEmitter outgoingPacketLengths:sum 0
attr interpolationmode none
attr recordingmode sum
attr source "packetLength(merge(packetPushedOut, packetPulledOut))"
attr title "outgoing packet lengths, sum"
attr unit b
statistic car_network.CU.eth[0].phyLayer.inboundEmitter outgoingPacketLengths:histogram
field count 0
field mean nan
field stddev nan
field min nan
field max nan
field sum 0
field sqrsum 0
attr interpolationmode none
attr recordingmode histogram
attr source "packetLength(merge(packetPushedOut, packetPulledOut))"
attr title "outgoing packet lengths"
attr unit b
bin	-inf	0
bin	0	0
bin	1	0
scalar car_network.CU.eth[0].phyLayer.inboundEmitter flowOutgoingPacketLengths:sum 0
attr interpolationmode none
attr recordingmode sum
attr source "packetLength(demuxFlow(merge(packetPushedOut, packetPulledOut)))"
attr title "flow specific outgoing packet lengths, sum"
attr unit b
statistic car_network.CU.eth[0].phyLayer.inboundEmitter flowOutgoingPacketLengths:histogram
field count 0
field mean nan
field stddev nan
field min nan
field max nan
field sum 0
field sqrsum 0
attr interpolationmode none
attr recordingmode histogram
attr source "packetLength(demuxFlow(merge(packetPushedOut, packetPulledOut)))"
attr title "flow specific outgoing packet lengths"
attr unit b
bin	-inf	0
bin	0	0
bin	1	0
scalar car_network.CU.eth[0].phyLayer.inboundEmitter incomingPackets:count 0
attr recordingmode count
attr source "merge(packetPushedIn, packetPulledIn)"
attr title "incoming packets, count"
attr unit pk
scalar car_network.CU.eth[0].phyLayer.inboundEmitter incomingPacketLengths:sum 0
attr interpolationmode none
attr recordingmode sum
attr source "packetLength(merge(packetPushedIn, packetPulledIn))"
attr title "incoming packet lengths, sum"
attr unit b
statistic car_network.CU.eth[0].phyLayer.inboundEmitter incomingPacketLengths:histogram
field count 0
field mean nan
field stddev nan
field min nan
field max nan
field sum 0
field sqrsum 0
attr interpolationmode none
attr recordingmode histogram
attr source "packetLength(merge(packetPushedIn, packetPulledIn))"
attr title "incoming packet lengths"
attr unit b
bin	-inf	0
bin	0	0
bin	1	0
scalar car_network.CU.eth[0].phyLayer.inboundEmitter flowIncomingPacketLengths:sum 0
attr interpolationmode none
attr recordingmode sum
attr source "packetLength(demuxFlow(merge(packetPushedIn, packetPulledIn)))"
attr title "flow specific incoming packet lengths, sum"
attr unit b
statistic car_network.CU.eth[0].phyLayer.inboundEmitter flowIncomingPacketLengths:histogram
field count 0
field mean nan
field stddev nan
field min nan
field max nan
field sum 0
field sqrsum 0
attr interpolationmode none
attr recordingmode histogram
attr source "packetLength(demuxFlow(merge(packetPushedIn, packetPulledIn)))"
attr title "flow specific incoming packet lengths"
attr unit b
bin	-inf	0
bin	0	0
bin	1	0
par car_network.CU.eth[0].phyLayer.receiver typename "\"inet.protocolelement.transceiver.PacketReceiver\""
par car_network.CU.eth[0].phyLayer.receiver displayStringTextFormat "\"processed %p pk (%l)\""
par car_network.CU.eth[0].phyLayer.receiver datarate 1e+09bps
attr unit bps
statistic car_network.CU.eth[0].phyLayer.receiver receptionTime:histogram
field count 0
field mean nan
field stddev nan
field min nan
field max nan
field sum 0
field sqrsum 0
attr interpolationmode none
attr recordingmode histogram
attr source packetDuration(receptionEnded)
attr title "reception time"
attr unit s
bin	-inf	0
bin	0	0
bin	1	0
statistic car_network.CU.eth[0].phyLayer.receiver flowReceptionTime:histogram
field count 0
field mean nan
field stddev nan
field min nan
field max nan
field sum 0
field sqrsum 0
attr interpolationmode none
attr recordingmode histogram
attr source packetDuration(demuxFlow(receptionEnded))
attr title "flow reception time"
attr unit s
bin	-inf	0
bin	0	0
bin	1	0
par car_network.CU.eth[0].phyLayer typename "\"inet.physicallayer.wired.ethernet.EthernetPhyLayer\""
par car_network.CU.eth[0].phyLayer bitrate this.bitrate
attr unit bps
par car_network.CU.eth[0] typename "\"inet.linklayer.ethernet.LayeredEthernetInterface\""
par car_network.CU.eth[0] displayStringTextFormat "\"%a (%i)\\n%m\""
par car_network.CU.eth[0] recordPcap false
par car_network.CU.eth[0] numPcapRecorders 0
par car_network.CU.eth[0] protocol "\"ethernetmac\""
par car_network.CU.eth[0] broadcast true
par car_network.CU.eth[0] multicast true
par car_network.CU.eth[0] address "\"0A-AA-00-00-00-16\""
attr mutable ""
par car_network.CU.eth[0] bitrate 1e+09bps
attr unit bps
par car_network.CU.eth[0] mtu 1500B
attr unit B
par car_network.CU.eth[0] interfaceTableModule "\"car_network.CU.interfaceTable\""
scalar car_network.CU.eth[0] packetDropInterfaceDown:count 0
attr interpolationmode none
attr recordingmode count
attr source packetDropReasonIsInterfaceDown(packetDropped)
attr title "packet drops: interface down, count"
scalar car_network.CU.eth[0] packetDropInterfaceDown:sum(packetBytes) 0
attr interpolationmode none
attr recordingmode sum(packetBytes)
attr source packetDropReasonIsInterfaceDown(packetDropped)
attr title "packet drops: interface down, sum(packetBytes)"
scalar car_network.CU.eth[0] packetDropNoCarrier:count 0
attr interpolationmode none
attr recordingmode count
attr source packetDropReasonIsNoCarrier(packetDropped)
attr title "packet drops: no carrier, count"
scalar car_network.CU.eth[0] packetDropNoCarrier:sum(packetBytes) 0
attr interpolationmode none
attr recordingmode sum(packetBytes)
attr source packetDropReasonIsNoCarrier(packetDropped)
attr title "packet drops: no carrier, sum(packetBytes)"
par car_network.CU.ipv4.transportIn.channel typename "\"ned.IdealChannel\""
par car_network.CU.ipv4.up.out[0].channel typename "\"ned.IdealChannel\""
par car_network.CU.ipv4.lp.out[2].channel typename "\"ned.IdealChannel\""
par car_network.CU.ipv4.ifIn.channel typename "\"ned.IdealChannel\""
par car_network.CU.ipv4.configurator typename "\"inet.networklayer.configurator.ipv4.Ipv4NodeConfigurator\""
par car_network.CU.ipv4.configurator interfaceTableModule "\"car_network.CU.interfaceTable\""
par car_network.CU.ipv4.configurator routingTableModule "\"car_network.CU.ipv4.routingTable\""
par car_network.CU.ipv4.configurator networkConfiguratorModule "\"configurator\""
par car_network.CU.ipv4.configurator configureRoutingTable true
par car_network.CU.ipv4.routingTable typename "\"inet.networklayer.ipv4.Ipv4RoutingTable\""
par car_network.CU.ipv4.routingTable interfaceTableModule "\"car_network.CU.interfaceTable\""
par car_network.CU.ipv4.routingTable routerId "\"auto\""
par car_network.CU.ipv4.routingTable netmaskRoutes "\"*\""
par car_network.CU.ipv4.routingTable forwarding false
par car_network.CU.ipv4.routingTable multicastForwarding false
par car_network.CU.ipv4.routingTable useAdminDist false
par car_network.CU.ipv4.routingTable routingFile "\"\""
par car_network.CU.ipv4.natTable typename "\"inet.networklayer.ipv4.Ipv4NatTable\""
par car_network.CU.ipv4.natTable networkProtocolModule "\"^.ip\""
par car_network.CU.ipv4.natTable config "<config/> at content:1"
par car_network.CU.ipv4.up typename "\"inet.common.MessageDispatcher\""
par car_network.CU.ipv4.up displayStringTextFormat "\"processed %p pk (%l)\""
par car_network.CU.ipv4.up forwardServiceRegistration true
par car_network.CU.ipv4.up forwardProtocolRegistration true
par car_network.CU.ipv4.igmp typename "\"inet.networklayer.ipv4.Igmpv2\""
par car_network.CU.ipv4.igmp interfaceTableModule "\"car_network.CU.interfaceTable\""
par car_network.CU.ipv4.igmp routingTableModule "\"car_network.CU.ipv4.routingTable\""
par car_network.CU.ipv4.igmp crcMode "\"declared\""
attr enum declared,computed
par car_network.CU.ipv4.igmp enabled true
par car_network.CU.ipv4.igmp robustnessVariable 2
par car_network.CU.ipv4.igmp queryInterval 125s
attr unit s
par car_network.CU.ipv4.igmp queryResponseInterval 10s
attr unit s
par car_network.CU.ipv4.igmp groupMembershipInterval 260s
attr unit s
par car_network.CU.ipv4.igmp otherQuerierPresentInterval 255s
attr unit s
par car_network.CU.ipv4.igmp startupQueryInterval 31.25s
attr unit s
par car_network.CU.ipv4.igmp startupQueryCount 2
par car_network.CU.ipv4.igmp lastMemberQueryInterval 1s
attr unit s
par car_network.CU.ipv4.igmp lastMemberQueryCount 2
par car_network.CU.ipv4.igmp unsolicitedReportInterval 10s
attr unit s
par car_network.CU.ipv4.icmp typename "\"inet.networklayer.ipv4.Icmp\""
par car_network.CU.ipv4.icmp interfaceTableModule "\"car_network.CU.interfaceTable\""
par car_network.CU.ipv4.icmp routingTableModule "\"car_network.CU.ipv4.routingTable\""
par car_network.CU.ipv4.icmp crcMode "\"declared\""
attr enum declared,computed
attr mutable ""
par car_network.CU.ipv4.icmp quoteLength 8B
attr mutable ""
attr unit B
par car_network.CU.ipv4.mp typename "\"inet.common.MessageDispatcher\""
par car_network.CU.ipv4.mp displayStringTextFormat "\"processed %p pk (%l)\""
par car_network.CU.ipv4.mp forwardServiceRegistration true
par car_network.CU.ipv4.mp forwardProtocolRegistration true
par car_network.CU.ipv4.ip typename "\"inet.networklayer.ipv4.Ipv4\""
par car_network.CU.ipv4.ip interfaceTableModule "\"car_network.CU.interfaceTable\""
par car_network.CU.ipv4.ip routingTableModule "\"car_network.CU.ipv4.routingTable\""
par car_network.CU.ipv4.ip arpModule "\"car_network.CU.ipv4.arp\""
par car_network.CU.ipv4.ip icmpModule "\"car_network.CU.ipv4.icmp\""
par car_network.CU.ipv4.ip crcMode "\"declared\""
attr enum declared,computed
par car_network.CU.ipv4.ip timeToLive 32
par car_network.CU.ipv4.ip multicastTimeToLive 32
par car_network.CU.ipv4.ip fragmentTimeout 60s
attr unit s
par car_network.CU.ipv4.ip limitedBroadcast false
par car_network.CU.ipv4.ip directBroadcastInterfaces "\"\""
scalar car_network.CU.ipv4.ip packetDropAddressResolutionFailed:count 0
attr interpolationmode none
attr recordingmode count
attr source packetDropReasonIsAddressResolutionFailed(packetDropped)
attr title "packet drop: address resolution failed, count"
scalar car_network.CU.ipv4.ip packetDropAddressResolutionFailed:sum(packetBytes) 0
attr interpolationmode none
attr recordingmode sum(packetBytes)
attr source packetDropReasonIsAddressResolutionFailed(packetDropped)
attr title "packet drop: address resolution failed, sum(packetBytes)"
scalar car_network.CU.ipv4.ip packetDropHopLimitReached:count 0
attr interpolationmode none
attr recordingmode count
attr source packetDropReasonIsHopLimitReached(packetDropped)
attr title "packet drop: hop limit reached, count"
scalar car_network.CU.ipv4.ip packetDropHopLimitReached:sum(packetBytes) 0
attr interpolationmode none
attr recordingmode sum(packetBytes)
attr source packetDropReasonIsHopLimitReached(packetDropped)
attr title "packet drop: hop limit reached, sum(packetBytes)"
scalar car_network.CU.ipv4.ip packetDropForwardingDisabled:count 0
attr interpolationmode none
attr recordingmode count
attr source packetDropReasonIsForwardingDisabled(packetDropped)
attr title "packet drop: forwarding disabled, count"
scalar car_network.CU.ipv4.ip packetDropForwardingDisabled:sum(packetBytes) 0
attr interpolationmode none
attr recordingmode sum(packetBytes)
attr source packetDropReasonIsForwardingDisabled(packetDropped)
attr title "packet drop: forwarding disabled, sum(packetBytes)"
scalar car_network.CU.ipv4.ip packetDropNoInterfaceFound:count 0
attr interpolationmode none
attr recordingmode count
attr source packetDropReasonIsNoInterfaceFound(packetDropped)
attr title "packet drop: no interface found, count"
scalar car_network.CU.ipv4.ip packetDropNoInterfaceFound:sum(packetBytes) 0
attr interpolationmode none
attr recordingmode sum(packetBytes)
attr source packetDropReasonIsNoInterfaceFound(packetDropped)
attr title "packet drop: no interface found, sum(packetBytes)"
scalar car_network.CU.ipv4.ip packetDropNoRouteFound:count 0
attr interpolationmode none
attr recordingmode count
attr source packetDropReasonIsNoRouteFound(packetDropped)
attr title "packet drop: no route found, count"
scalar car_network.CU.ipv4.ip packetDropNoRouteFound:sum(packetBytes) 0
attr interpolationmode none
attr recordingmode sum(packetBytes)
attr source packetDropReasonIsNoRouteFound(packetDropped)
attr title "packet drop: no route found, sum(packetBytes)"
scalar car_network.CU.ipv4.ip packetDropUndefined:count 0
attr interpolationmode none
attr recordingmode count
attr source packetDropReasonIsUndefined(packetDropped)
attr title "packet drop: undefined, count"
scalar car_network.CU.ipv4.ip packetDropUndefined:sum(packetBytes) 0
attr interpolationmode none
attr recordingmode sum(packetBytes)
attr source packetDropReasonIsUndefined(packetDropped)
attr title "packet drop: undefined, sum(packetBytes)"
par car_network.CU.ipv4.arp typename "\"inet.networklayer.arp.ipv4.GlobalArp\""
par car_network.CU.ipv4.arp interfaceTableModule "\"car_network.CU.interfaceTable\""
par car_network.CU.ipv4.arp addressType "\"ipv4\""
attr enum ipv4,ipv6,mac,moduleid,modulepath
par car_network.CU.ipv4.lp typename "\"inet.common.MessageDispatcher\""
par car_network.CU.ipv4.lp displayStringTextFormat "\"processed %p pk (%l)\""
par car_network.CU.ipv4.lp forwardServiceRegistration true
par car_network.CU.ipv4.lp forwardProtocolRegistration true
par car_network.CU.ipv4 typename "\"inet.networklayer.ipv4.Ipv4NetworkLayer\""
par car_network.CU.ipv4 forwarding false
par car_network.CU.ipv4 multicastForwarding false
par car_network.CU.ipv4 interfaceTableModule "\"car_network.CU.interfaceTable\""
par car_network.CU.ipv4 displayStringTextFormat "\"%i\""
par car_network.CU.nl typename "\"inet.common.MessageDispatcher\""
par car_network.CU.nl displayStringTextFormat "\"processed %p pk (%l)\""
par car_network.CU.nl forwardServiceRegistration true
par car_network.CU.nl forwardProtocolRegistration true
par car_network.CU.udp typename "\"inet.transportlayer.udp.Udp\""
par car_network.CU.udp interfaceTableModule "\"car_network.CU.interfaceTable\""
par car_network.CU.udp icmpModule "\"^.ipv4.icmp\""
par car_network.CU.udp icmpv6Module "\"^.ipv6.icmpv6\""
par car_network.CU.udp crcMode "\"declared\""
attr enum disabled,declared,computed
par car_network.CU.udp defaultMulticastLoop true
scalar car_network.CU.udp packetReceived:count 0
attr interpolationmode none
attr recordingmode count
attr source packetReceived
attr title "packets received, count"
scalar car_network.CU.udp packetReceived:sum(packetBytes) 0
attr interpolationmode none
attr recordingmode sum(packetBytes)
attr source packetReceived
attr title "packets received, sum(packetBytes)"
scalar car_network.CU.udp packetSent:count 0
attr interpolationmode none
attr recordingmode count
attr source packetSent
attr title "packets sent, count"
scalar car_network.CU.udp packetSent:sum(packetBytes) 0
attr interpolationmode none
attr recordingmode sum(packetBytes)
attr source packetSent
attr title "packets sent, sum(packetBytes)"
scalar car_network.CU.udp passedUpPk:count 0
attr interpolationmode none
attr recordingmode count
attr source packetSentToUpper
attr title "packets passed up, count"
scalar car_network.CU.udp droppedPkWrongPort:count 0
attr interpolationmode none
attr recordingmode count
attr source packetDropReasonIsNoPortFound(packetDropped)
attr title "packets dropped (wrong port), count"
scalar car_network.CU.udp droppedPkBadChecksum:count 0
attr interpolationmode none
attr recordingmode count
attr source packetDropReasonIsIncorrectlyReceived(packetDropped)
attr title "packets dropped (checksum error), count"
par car_network.CU.tcp typename "\"inet.transportlayer.tcp.Tcp\""
par car_network.CU.tcp crcMode "\"declared\""
attr enum declared,computed
par car_network.CU.tcp advertisedWindow 7504
par car_network.CU.tcp delayedAcksEnabled false
par car_network.CU.tcp nagleEnabled true
par car_network.CU.tcp limitedTransmitEnabled false
par car_network.CU.tcp increasedIWEnabled false
par car_network.CU.tcp sackSupport false
par car_network.CU.tcp windowScalingSupport false
par car_network.CU.tcp windowScalingFactor -1
par car_network.CU.tcp timestampSupport false
par car_network.CU.tcp mss 536
par car_network.CU.tcp msl 120s
attr unit s
par car_network.CU.tcp tcpAlgorithmClass "\"TcpReno\""
attr enum TcpVegas,TcpWestwood,TcpNewReno,TcpReno,TcpTahoe,TcpNoCongestionControl
par car_network.CU.tcp useDataNotification false
par car_network.CU.tcp dupthresh 3
par car_network.CU.tcp initialSsthresh 4294967295
par car_network.CU.tcp stopOperationExtraTime 0s
attr unit s
par car_network.CU.tcp stopOperationTimeout 2s
attr unit s
par car_network.CU.tcp ecnWillingness false
par car_network.CU.tcp dctcpGamma 0.0625
par car_network.CU.tn typename "\"inet.common.MessageDispatcher\""
par car_network.CU.tn displayStringTextFormat "\"processed %p pk (%l)\""
par car_network.CU.tn forwardServiceRegistration true
par car_network.CU.tn forwardProtocolRegistration true
par car_network.CU.at typename "\"inet.common.MessageDispatcher\""
par car_network.CU.at displayStringTextFormat "\"processed %p pk (%l)\""
par car_network.CU.at forwardServiceRegistration true
par car_network.CU.at forwardProtocolRegistration true
par car_network.CU typename "\"inet.node.tsn.TsnDevice\""
par car_network.CU hasStatus false
par car_network.CU osgModel "\"\""
par car_network.CU osgModelColor "\"\""
par car_network.CU canvasImage "\"\""
par car_network.CU canvasImageColor "\"\""
par car_network.CU recordPcap false
par car_network.CU numPcapRecorders 0
par car_network.CU numLoInterfaces 1
par car_network.CU numWlanInterfaces 0
par car_network.CU numEthInterfaces 0
par car_network.CU numPppInterfaces 0
par car_network.CU numTunInterfaces 0
par car_network.CU numVirtInterfaces 0
par car_network.CU fcsMode "\"declared\""
attr enum declared,computed
par car_network.CU hasIpv4 true
par car_network.CU hasIpv6 false
par car_network.CU hasGn false
par car_network.CU forwarding false
par car_network.CU multicastForwarding false
par car_network.CU hasUdp true
par car_network.CU hasTcp true
par car_network.CU hasSctp false
par car_network.CU numApps 0
par car_network.CU hasTimeSynchronization false
par car_network.CU hasIngressTrafficFiltering false
par car_network.CU hasEgressTrafficFiltering false
par car_network.CU hasEgressTrafficShaping false
par car_network.CU hasStreamRedundancy false
par car_network.CU hasIncomingStreams false
par car_network.CU hasOutgoingStreams false
par car_network.CU hasFramePreemption false
par car_network.CU hasCutthroughSwitching false
par car_network typename "\"tsn_simulations.simulations.mustafa_car_network.car_network\""
par car_network recordPcap false
par car_network numPcapRecorders 0
par car_network hasGlobalArp true

